158
-3043.47638
C     0.615000000     0.037000000     1.380000000
H     0.912000000     0.200000000     2.412000000
C    -0.312000000     0.914000000     0.880000000
H    -0.601000000     1.749000000     1.513000000
C    -0.796000000     0.871000000    -0.437000000
H    -1.556000000     1.577000000    -0.733000000
C    -0.368000000    -0.257000000    -1.223000000
H    -0.748000000    -0.388000000    -2.233000000
C     0.549000000    -1.208000000    -0.786000000
H     0.990000000    -1.987000000    -1.403000000
C     0.953000000    -1.080000000     0.591000000
C     1.968000000    -2.109000000     1.122000000
O     2.627000000    -1.695000000     2.040000000
O     2.199000000    -3.154000000     0.547000000
O    -4.780000000    -1.130000000     0.949000000
H    -5.464000000    -1.772000000     1.137000000
H    -4.136000000    -1.612000000     0.429000000
O    -5.843000000     4.523000000    -0.481000000
H    -6.504000000     5.192000000    -0.661000000
H    -5.023000000     5.010000000    -0.406000000
O     0.333000000    -6.736000000     0.474000000
H    -0.133000000    -7.531000000     0.736000000
H     1.240000000    -7.019000000     0.353000000
O    -0.898000000     4.922000000    -5.627000000
H    -1.755000000     4.818000000    -6.040000000
H    -0.745000000     4.090000000    -5.179000000
O     1.776000000     2.089000000    -0.821000000
H     1.131000000     1.419000000    -0.593000000
H     1.911000000     2.578000000    -0.009000000
O    -1.517000000     7.351000000    -0.913000000
H    -1.781000000     7.278000000    -1.830000000
H    -0.713000000     6.835000000    -0.853000000
O     4.227000000    -2.669000000    -4.493000000
H     4.059000000    -1.754000000    -4.267000000
H     5.086000000    -2.856000000    -4.113000000
O     3.925000000     0.676000000    -1.681000000
H     4.070000000     0.485000000    -2.607000000
H     2.982000000     0.821000000    -1.611000000
O    -0.973000000     4.499000000    -1.552000000
H    -0.057000000     4.775000000    -1.515000000
H    -1.404000000     5.008000000    -0.865000000
O     4.343000000    -0.819000000     6.146000000
H     4.769000000    -1.188000000     5.372000000
H     3.733000000    -0.169000000     5.796000000
O     2.293000000     3.527000000    -3.049000000
H     1.828000000     3.003000000    -3.701000000
H     2.180000000     3.047000000    -2.229000000
O    -1.592000000     2.697000000    -3.576000000
H    -2.433000000     2.307000000    -3.340000000
H    -1.332000000     3.194000000    -2.800000000
O     3.049000000     3.248000000     6.299000000
H     2.461000000     2.744000000     5.736000000
H     2.653000000     3.193000000     7.169000000
O     5.077000000    -3.520000000    -1.561000000
H     4.459000000    -3.674000000    -2.274000000
H     4.536000000    -3.516000000    -0.771000000
O     3.177000000    -7.165000000     0.070000000
H     3.108000000    -8.081000000    -0.199000000
H     3.899000000    -7.154000000     0.698000000
O     0.686000000     1.868000000    -4.464000000
H     0.672000000     2.106000000    -5.391000000
H    -0.198000000     2.064000000    -4.154000000
O    -2.603000000     2.794000000     3.008000000
H    -3.184000000     2.106000000     3.332000000
H    -1.915000000     2.858000000     3.671000000
O     1.060000000     0.768000000     6.637000000
H     0.404000000     0.074000000     6.703000000
H     1.386000000     0.706000000     5.739000000
O     0.959000000     6.173000000    -0.841000000
H     1.473000000     6.296000000    -0.042000000
H     1.378000000     6.745000000    -1.485000000
O    -3.071000000    -1.039000000    -3.625000000
H    -3.473000000    -1.120000000    -4.490000000
H    -2.623000000    -1.874000000    -3.490000000
O     2.871000000    -5.797000000     3.566000000
H     1.976000000    -5.504000000     3.397000000
H     2.938000000    -5.826000000     4.520000000
O    -1.543000000    -3.533000000     4.015000000
H    -1.992000000    -2.790000000     3.610000000
H    -1.126000000    -3.988000000     3.283000000
O    -3.688000000     1.466000000    -2.480000000
H    -3.884000000     1.457000000    -1.544000000
H    -3.279000000     0.617000000    -2.647000000
O    -0.890000000    -4.288000000    -0.847000000
H    -0.511000000    -5.035000000    -0.382000000
H    -0.413000000    -4.256000000    -1.676000000
O     5.216000000    -1.832000000     3.735000000
H     5.832000000    -1.464000000     3.101000000
H     4.442000000    -2.052000000     3.217000000
O    -2.659000000     4.477000000     0.707000000
H    -2.185000000     5.004000000     1.350000000
H    -2.661000000     3.594000000     1.077000000
O    -2.171000000     6.323000000    -3.380000000
H    -1.685000000     5.502000000    -3.302000000
H    -2.696000000     6.216000000    -4.173000000
O     0.847000000     3.823000000     2.491000000
H     1.607000000     4.199000000     2.047000000
H     0.419000000     4.571000000     2.908000000
O     1.312000000    -0.733000000    -4.726000000
H     1.563000000     0.190000000    -4.753000000
H     0.423000000    -0.730000000    -4.372000000
O     0.460000000    -4.760000000     2.145000000
H     0.768000000    -4.054000000     1.577000000
H     0.682000000    -5.562000000     1.672000000
O    -1.012000000     2.944000000     5.381000000
H    -1.246000000     3.871000000     5.324000000
H    -0.249000000     2.925000000     5.959000000
O     4.255000000    -4.035000000     2.157000000
H     3.543000000    -3.614000000     1.676000000
H     3.837000000    -4.766000000     2.613000000
O     4.326000000     1.625000000     2.898000000
H     4.666000000     1.070000000     2.197000000
H     4.261000000     2.495000000     2.504000000
O    -4.511000000     2.072000000     0.067000000
H    -4.860000000     1.909000000     0.944000000
H    -4.812000000     2.955000000    -0.150000000
O    -5.208000000     4.430000000     2.648000000
H    -4.415000000     3.923000000     2.821000000
H    -5.204000000     4.564000000     1.700000000
O     2.331000000    -4.963000000    -1.558000000
H     2.476000000    -4.260000000    -0.924000000
H     2.482000000    -5.768000000    -1.063000000
O     1.188000000    -1.327000000     4.465000000
H     1.753000000    -1.539000000     3.722000000
H     0.843000000    -2.172000000     4.753000000
O    -1.567000000    -3.262000000    -4.489000000
H    -1.024000000    -3.923000000    -4.059000000
H    -1.410000000    -3.395000000    -5.424000000
O     0.352000000    -5.243000000    -3.546000000
H     1.148000000    -5.390000000    -3.035000000
H     0.567000000    -5.566000000    -4.422000000
O    -5.262000000     2.655000000    -4.356000000
H    -4.652000000     2.465000000    -3.644000000
H    -5.666000000     1.811000000    -4.557000000
O    -6.657000000    -1.009000000    -1.383000000
H    -5.748000000    -0.894000000    -1.107000000
H    -7.112000000    -0.240000000    -1.039000000
O     4.630000000    -0.087000000     0.808000000
H     3.867000000    -0.436000000     1.270000000
H     4.339000000     0.007000000    -0.099000000
O    -3.232000000    -1.455000000     3.387000000
H    -2.602000000    -0.781000000     3.639000000
H    -3.450000000    -1.252000000     2.478000000
O     1.920000000     1.787000000     4.082000000
H     1.543000000     2.367000000     3.421000000
H     2.767000000     1.528000000     3.720000000
O    -2.435000000    -2.184000000     0.108000000
H    -2.088000000    -1.316000000    -0.099000000
H    -1.775000000    -2.792000000    -0.226000000
O    -1.417000000     0.106000000     4.512000000
H    -1.174000000     1.019000000     4.661000000
H    -0.613000000    -0.387000000     4.678000000
O     6.765000000    -3.559000000     0.801000000
H     6.007000000    -3.443000000     1.374000000
H     6.424000000    -3.405000000    -0.081000000
O    -7.715000000     1.242000000    -0.377000000
H    -7.021000000     1.803000000    -0.030000000
H    -8.524000000     1.719000000    -0.192000000
