158
-3019.20917
C    -0.013000000     0.374000000     1.320000000
H    -0.103000000     0.781000000     2.324000000
C    -0.320000000     1.187000000     0.274000000
H    -0.708000000     2.175000000     0.507000000
C    -0.314000000     0.668000000    -0.957000000
H    -0.563000000     1.261000000    -1.817000000
C     0.055000000    -0.663000000    -1.158000000
H    -0.118000000    -1.041000000    -2.162000000
C     0.380000000    -1.437000000    -0.019000000
H     0.506000000    -2.511000000    -0.127000000
C     0.440000000    -0.928000000     1.212000000
C     1.032000000    -1.706000000     2.401000000
O     0.721000000    -1.285000000     3.477000000
O     1.756000000    -2.699000000     2.303000000
O     1.964000000    -5.156000000    -1.793000000
H     2.443000000    -5.866000000    -1.366000000
H     1.287000000    -5.598000000    -2.306000000
O    -2.029000000    -3.400000000     0.609000000
H    -2.619000000    -3.038000000     1.270000000
H    -2.588000000    -3.552000000    -0.153000000
O    -1.243000000    -5.270000000    -5.246000000
H    -0.598000000    -5.834000000    -4.819000000
H    -0.982000000    -4.382000000    -5.005000000
O    -0.832000000     3.017000000    -3.770000000
H    -1.619000000     2.733000000    -3.303000000
H    -0.184000000     3.163000000    -3.081000000
O     4.251000000     2.470000000    -2.087000000
H     3.849000000     1.722000000    -1.645000000
H     4.761000000     2.905000000    -1.404000000
O     2.831000000     0.340000000    -0.756000000
H     2.623000000     0.024000000    -1.635000000
H     1.979000000     0.517000000    -0.357000000
O     1.319000000     3.313000000    -2.128000000
H     2.023000000     2.690000000    -2.305000000
H     1.675000000     3.893000000    -1.455000000
O     3.150000000    -5.082000000     4.811000000
H     2.205000000    -4.994000000     4.684000000
H     3.256000000    -5.939000000     5.224000000
O    -0.716000000     4.885000000    -6.283000000
H    -0.148000000     4.519000000    -6.962000000
H    -0.983000000     4.128000000    -5.761000000
O     3.407000000    -1.269000000     7.860000000
H     3.119000000    -1.823000000     7.134000000
H     3.509000000    -0.400000000     7.473000000
O     5.918000000    -3.633000000    -0.578000000
H     5.089000000    -3.795000000    -0.128000000
H     6.365000000    -4.479000000    -0.569000000
O     4.550000000     1.822000000    -4.817000000
H     3.750000000     1.301000000    -4.881000000
H     4.494000000     2.243000000    -3.959000000
O     2.438000000    -0.172000000    -3.463000000
H     2.408000000    -1.115000000    -3.624000000
H     1.579000000     0.146000000    -3.743000000
O    -3.165000000     3.332000000    -2.240000000
H    -3.269000000     2.638000000    -1.589000000
H    -2.482000000     3.898000000    -1.880000000
O     5.120000000    -5.681000000     1.402000000
H     4.772000000    -6.119000000     0.626000000
H     4.794000000    -6.200000000     2.137000000
O     1.988000000     1.200000000    -6.455000000
H     2.579000000     1.817000000    -6.887000000
H     2.111000000     0.378000000    -6.929000000
O     0.166000000     0.348000000    -4.763000000
H     0.662000000     0.666000000    -5.517000000
H    -0.727000000     0.657000000    -4.916000000
O    -2.209000000     0.715000000     3.321000000
H    -1.393000000     0.293000000     3.590000000
H    -2.059000000     1.647000000     3.475000000
O     3.169000000     0.840000000     5.910000000
H     3.016000000     0.218000000     5.199000000
H     3.167000000     1.697000000     5.483000000
O    -5.823000000     0.078000000    -5.812000000
H    -5.334000000    -0.294000000    -5.077000000
H    -6.566000000    -0.514000000    -5.928000000
O    -3.000000000     6.980000000     2.066000000
H    -2.978000000     6.064000000     1.788000000
H    -2.804000000     7.476000000     1.271000000
O     0.782000000     6.320000000    -1.131000000
H     0.524000000     6.661000000    -1.987000000
H     1.189000000     7.065000000    -0.689000000
O     0.033000000    -2.739000000    -4.944000000
H    -0.037000000    -1.791000000    -4.830000000
H     0.910000000    -2.955000000    -4.628000000
O    -1.303000000    -3.684000000     4.159000000
H    -2.170000000    -3.307000000     4.305000000
H    -0.740000000    -2.930000000     3.983000000
O    -3.637000000    -0.810000000    -1.247000000
H    -3.751000000     0.028000000    -0.799000000
H    -2.917000000    -1.234000000    -0.780000000
O    -1.357000000    -6.469000000    -0.112000000
H    -2.116000000    -6.360000000     0.461000000
H    -0.679000000    -5.921000000     0.282000000
O    -1.276000000     4.654000000    -0.735000000
H    -0.482000000     5.155000000    -0.548000000
H    -1.699000000     4.548000000     0.117000000
O    -0.404000000     6.263000000    -3.851000000
H    -0.289000000     5.652000000    -4.579000000
H    -0.847000000     5.749000000    -3.176000000
O     1.696000000     5.253000000     5.346000000
H     0.981000000     5.883000000     5.263000000
H     1.463000000     4.546000000     4.744000000
O    -1.522000000     0.278000000     6.661000000
H    -0.742000000     0.236000000     6.107000000
H    -1.625000000     1.209000000     6.858000000
O     0.539000000    -5.737000000     3.773000000
H    -0.267000000    -5.222000000     3.813000000
H     0.801000000    -5.701000000     2.853000000
O     2.609000000     5.019000000    -3.897000000
H     3.445000000     4.888000000    -3.451000000
H     1.967000000     4.582000000    -3.337000000
O    -2.126000000     3.237000000     4.402000000
H    -1.531000000     2.979000000     5.106000000
H    -2.951000000     3.435000000     4.846000000
O     4.292000000    -2.572000000     2.248000000
H     3.351000000    -2.711000000     2.150000000
H     4.543000000    -3.132000000     2.983000000
O    -3.426000000     1.705000000     0.055000000
H    -2.709000000     1.418000000     0.620000000
H    -4.178000000     1.780000000     0.643000000
O    -2.540000000     4.262000000     1.732000000
H    -2.197000000     3.906000000     2.552000000
H    -3.118000000     3.577000000     1.396000000
O     1.084000000    -5.077000000     1.131000000
H     1.180000000    -4.224000000     1.553000000
H     1.117000000    -4.887000000     0.194000000
O     2.465000000    -2.308000000     5.546000000
H     1.721000000    -2.375000000     4.948000000
H     3.065000000    -2.997000000     5.260000000
O     2.583000000    -3.210000000    -4.086000000
H     2.739000000    -3.528000000    -3.197000000
H     3.175000000    -3.727000000    -4.632000000
O    -4.627000000    -1.018000000    -3.769000000
H    -4.250000000    -0.974000000    -2.890000000
H    -4.852000000    -1.941000000    -3.888000000
O    -2.018000000    -0.648000000    -7.967000000
H    -1.418000000    -1.364000000    -7.758000000
H    -1.974000000    -0.069000000    -7.207000000
O    -4.757000000     0.365000000     2.846000000
H    -5.129000000     0.807000000     3.610000000
H    -3.820000000     0.311000000     3.033000000
O     4.935000000    -0.003000000     0.748000000
H     4.899000000    -0.830000000     1.229000000
H     4.050000000     0.112000000     0.403000000
O    -3.490000000    -1.540000000     5.215000000
H    -3.126000000    -0.807000000     5.712000000
H    -3.961000000    -1.128000000     4.491000000
O    -3.051000000    -3.909000000    -2.156000000
H    -2.118000000    -4.006000000    -2.343000000
H    -3.379000000    -4.807000000    -2.102000000
O    -4.444000000     4.764000000    -4.485000000
H    -3.855000000     4.402000000    -3.824000000
H    -4.716000000     4.007000000    -5.004000000
O     0.461000000     0.642000000     4.940000000
H     1.279000000     0.642000000     5.437000000
H     0.564000000    -0.071000000     4.309000000
O    -2.618000000     0.673000000    -5.571000000
H    -3.125000000     1.483000000    -5.620000000
H    -3.154000000     0.086000000    -5.038000000
