158
-3040.09228
C     0.466000000     0.046000000     1.469000000
H     0.645000000     0.225000000     2.526000000
C     0.258000000     1.144000000     0.580000000
H     0.451000000     2.103000000     1.054000000
C    -0.187000000     0.991000000    -0.765000000
H    -0.442000000     1.797000000    -1.346000000
C    -0.466000000    -0.327000000    -1.232000000
H    -0.672000000    -0.574000000    -2.270000000
C    -0.203000000    -1.404000000    -0.392000000
H    -0.303000000    -2.408000000    -0.797000000
C     0.312000000    -1.237000000     0.924000000
C     0.578000000    -2.386000000     1.813000000
O     1.003000000    -2.201000000     2.937000000
O     0.379000000    -3.544000000     1.463000000
O     4.260000000     4.558000000     3.318000000
H     3.504000000     4.053000000     3.016000000
H     4.480000000     5.124000000     2.578000000
O    -2.739000000    -5.577000000    -0.845000000
H    -2.680000000    -4.820000000    -0.262000000
H    -3.669000000    -5.803000000    -0.851000000
O     5.895000000    -1.230000000     2.789000000
H     4.983000000    -1.388000000     3.030000000
H     5.933000000    -0.293000000     2.594000000
O     2.014000000    -7.283000000     3.021000000
H     1.373000000    -6.618000000     3.271000000
H     2.602000000    -6.833000000     2.415000000
O    -1.873000000    -7.789000000     1.293000000
H    -1.674000000    -7.360000000     2.126000000
H    -2.733000000    -7.449000000     1.048000000
O    -0.780000000     1.637000000    -4.240000000
H    -1.487000000     1.560000000    -3.598000000
H    -0.147000000     2.225000000    -3.828000000
O     4.533000000     3.237000000    -2.817000000
H     4.770000000     2.323000000    -2.978000000
H     3.750000000     3.188000000    -2.269000000
O     0.970000000     4.200000000     2.668000000
H     0.361000000     4.667000000     3.241000000
H     1.058000000     4.765000000     1.901000000
O     2.898000000    -0.099000000    -0.799000000
H     2.785000000    -0.667000000    -1.562000000
H     2.041000000     0.310000000    -0.677000000
O     0.798000000     3.699000000    -3.237000000
H     0.840000000     3.597000000    -2.286000000
H     1.612000000     4.147000000    -3.466000000
O    -0.790000000     5.021000000    -5.378000000
H    -0.602000000     4.158000000    -5.749000000
H    -0.902000000     4.859000000    -4.441000000
O     2.094000000    -4.355000000     5.518000000
H     2.425000000    -5.120000000     5.987000000
H     1.312000000    -4.671000000     5.065000000
O     4.345000000    -3.148000000    -1.068000000
H     3.529000000    -3.474000000    -1.446000000
H     4.464000000    -3.666000000    -0.272000000
O     2.362000000    -1.921000000    -3.148000000
H     2.944000000    -2.395000000    -3.742000000
H     1.874000000    -1.325000000    -3.715000000
O    -3.239000000     2.017000000    -2.002000000
H    -3.454000000     1.581000000    -1.178000000
H    -3.189000000     2.946000000    -1.776000000
O     0.177000000     0.518000000     6.706000000
H     0.236000000    -0.396000000     6.428000000
H     0.521000000     0.519000000     7.600000000
O     0.889000000    -0.483000000    -4.865000000
H     1.159000000     0.212000000    -5.466000000
H     0.078000000    -0.158000000    -4.473000000
O    -2.123000000    -3.772000000     1.335000000
H    -1.187000000    -3.584000000     1.405000000
H    -2.280000000    -4.457000000     1.984000000
O     3.732000000     5.545000000    -3.672000000
H     4.436000000     6.102000000    -4.001000000
H     4.177000000     4.764000000    -3.344000000
O    -0.343000000     5.916000000    -1.670000000
H     0.078000000     6.127000000    -2.503000000
H     0.327000000     6.094000000    -1.010000000
O     0.479000000    -3.195000000    -6.095000000
H    -0.151000000    -3.105000000    -5.380000000
H     0.615000000    -2.301000000    -6.408000000
O    -4.499000000     0.924000000    -5.828000000
H    -4.094000000     0.517000000    -5.062000000
H    -4.834000000     0.188000000    -6.341000000
O    -2.025000000     2.184000000    -7.087000000
H    -1.409000000     1.701000000    -6.536000000
H    -2.875000000     1.784000000    -6.903000000
O    -2.323000000    -5.388000000     3.762000000
H    -2.628000000    -6.113000000     4.308000000
H    -3.039000000    -4.753000000     3.785000000
O    -3.281000000    -2.495000000    -0.836000000
H    -2.823000000    -1.687000000    -1.069000000
H    -2.980000000    -2.694000000     0.051000000
O     0.491000000    -3.890000000    -2.850000000
H     0.994000000    -3.103000000    -3.060000000
H     1.027000000    -4.353000000    -2.207000000
O    -0.322000000    -6.985000000    -0.879000000
H    -1.045000000    -6.469000000    -1.238000000
H    -0.677000000    -7.367000000    -0.076000000
O     5.097000000    -3.123000000     4.679000000
H     4.502000000    -2.530000000     5.137000000
H     5.807000000    -2.560000000     4.371000000
O    -2.714000000     4.780000000    -1.073000000
H    -1.879000000     4.987000000    -1.492000000
H    -2.495000000     4.647000000    -0.152000000
O     2.455000000     1.907000000     3.432000000
H     1.720000000     2.518000000     3.372000000
H     2.847000000     1.917000000     2.559000000
O    -2.068000000    -2.702000000     6.567000000
H    -1.395000000    -2.339000000     5.991000000
H    -2.565000000    -1.940000000     6.864000000
O     0.364000000    -5.310000000     3.386000000
H    -0.554000000    -5.516000000     3.561000000
H     0.341000000    -4.452000000     2.962000000
O    -1.595000000     2.709000000     5.802000000
H    -1.011000000     1.993000000     5.553000000
H    -1.173000000     3.108000000     6.563000000
O     4.908000000    -5.175000000     0.845000000
H     4.387000000    -4.769000000     1.538000000
H     4.454000000    -5.995000000     0.652000000
O     3.699000000     1.739000000     0.942000000
H     4.640000000     1.859000000     0.814000000
H     3.482000000     0.970000000     0.414000000
O    -4.969000000     3.968000000     1.131000000
H    -5.552000000     4.192000000     0.405000000
H    -5.281000000     3.116000000     1.435000000
O    -2.184000000     4.388000000     2.168000000
H    -1.789000000     3.743000000     2.755000000
H    -3.046000000     4.027000000     1.961000000
O     1.614000000    -5.199000000    -0.497000000
H     1.222000000    -4.776000000     0.267000000
H     0.970000000    -5.854000000    -0.765000000
O     3.287000000    -3.960000000     2.652000000
H     2.560000000    -3.676000000     2.098000000
H     3.193000000    -3.444000000     3.454000000
O     2.387000000     2.112000000     6.215000000
H     1.502000000     1.788000000     6.381000000
H     2.517000000     1.985000000     5.275000000
O     2.487000000     3.762000000    -0.915000000
H     2.525000000     3.077000000    -0.246000000
H     3.145000000     4.401000000    -0.640000000
O    -3.691000000    -0.350000000    -3.645000000
H    -3.679000000     0.523000000    -3.254000000
H    -4.493000000    -0.751000000    -3.312000000
O     3.176000000    -1.046000000     3.312000000
H     2.392000000    -1.576000000     3.169000000
H     2.842000000    -0.193000000     3.586000000
O     4.980000000     0.460000000     5.295000000
H     5.022000000     1.377000000     5.026000000
H     4.384000000     0.053000000     4.666000000
O    -5.158000000     6.108000000    -1.205000000
H    -4.833000000     6.811000000    -1.768000000
H    -4.449000000     5.466000000    -1.191000000
O    -3.045000000    -4.059000000    -3.164000000
H    -2.476000000    -4.804000000    -3.357000000
H    -3.169000000    -4.092000000    -2.216000000
O     0.332000000    -2.000000000     5.480000000
H     0.983000000    -2.478000000     5.996000000
H     0.633000000    -2.087000000     4.576000000
O    -1.572000000    -1.699000000    -4.254000000
H    -1.721000000    -2.494000000    -3.741000000
H    -2.394000000    -1.215000000    -4.190000000
