158
-2997.96763
C     0.587000000     1.257000000    -0.438000000
H     0.881000000     2.170000000    -0.950000000
C     0.291000000     0.109000000    -1.227000000
H     0.408000000     0.163000000    -2.306000000
C    -0.029000000    -1.090000000    -0.661000000
H    -0.028000000    -2.012000000    -1.202000000
C    -0.321000000    -1.103000000     0.708000000
H    -0.744000000    -2.049000000     1.037000000
C    -0.229000000     0.043000000     1.488000000
H    -0.454000000     0.034000000     2.552000000
C     0.342000000     1.234000000     0.950000000
C     0.344000000     2.503000000     1.774000000
O     0.692000000     3.578000000     1.214000000
O     0.112000000     2.648000000     2.964000000
O    -0.367000000     4.255000000     5.274000000
H    -0.642000000     3.825000000     4.465000000
H     0.587000000     4.175000000     5.275000000
O    -0.894000000    -1.086000000    -4.958000000
H    -0.149000000    -0.565000000    -5.259000000
H    -1.338000000    -1.356000000    -5.763000000
O    -2.978000000     1.936000000     0.527000000
H    -2.998000000     1.607000000     1.426000000
H    -3.189000000     1.174000000    -0.012000000
O    -3.299000000     0.906000000    -2.914000000
H    -3.002000000     0.240000000    -2.294000000
H    -4.138000000     1.203000000    -2.563000000
O     1.786000000     5.682000000    -3.499000000
H     1.308000000     4.956000000    -3.899000000
H     1.390000000     5.782000000    -2.633000000
O    -2.071000000    -2.183000000     3.816000000
H    -1.409000000    -2.554000000     4.399000000
H    -2.582000000    -2.937000000     3.523000000
O    -1.548000000     2.723000000    -3.719000000
H    -1.734000000     3.079000000    -2.850000000
H    -2.158000000     1.992000000    -3.814000000
O     4.473000000     0.890000000     4.005000000
H     4.107000000     0.904000000     3.121000000
H     3.715000000     1.002000000     4.580000000
O     3.513000000     0.860000000     1.529000000
H     3.100000000     0.541000000     0.728000000
H     3.500000000     1.813000000     1.442000000
O    -2.326000000     6.230000000     0.497000000
H    -2.972000000     6.365000000    -0.196000000
H    -1.672000000     5.650000000     0.106000000
O     0.229000000     8.494000000     1.369000000
H    -0.709000000     8.663000000     1.287000000
H     0.284000000     7.689000000     1.884000000
O     3.649000000    -4.204000000    -0.744000000
H     2.791000000    -4.369000000    -0.354000000
H     3.738000000    -4.877000000    -1.420000000
O     2.826000000    -4.132000000     3.809000000
H     3.325000000    -3.747000000     3.089000000
H     2.197000000    -3.454000000     4.054000000
O     0.983000000     5.762000000     2.585000000
H     0.639000000     4.937000000     2.243000000
H     1.759000000     5.509000000     3.086000000
O    -4.415000000    -1.150000000     5.594000000
H    -3.610000000    -1.444000000     5.167000000
H    -5.117000000    -1.480000000     5.033000000
O    -2.521000000     3.443000000     7.082000000
H    -1.991000000     3.642000000     6.311000000
H    -2.682000000     2.501000000     7.026000000
O     3.272000000     4.729000000     3.636000000
H     3.917000000     5.434000000     3.687000000
H     3.525000000     4.228000000     2.861000000
O    -3.502000000    -0.060000000     2.920000000
H    -3.611000000    -0.384000000     2.026000000
H    -2.951000000    -0.716000000     3.347000000
O     1.147000000    -1.586000000     4.129000000
H     1.535000000    -0.790000000     4.493000000
H     1.000000000    -1.381000000     3.206000000
O    -1.361000000     6.618000000     5.522000000
H    -0.965000000     5.754000000     5.411000000
H    -0.620000000     7.205000000     5.670000000
O    -2.588000000     0.622000000     7.106000000
H    -1.658000000     0.399000000     7.146000000
H    -2.944000000     0.047000000     6.428000000
O    -3.852000000    -0.048000000    -5.627000000
H    -4.456000000     0.582000000    -5.233000000
H    -3.402000000    -0.446000000    -4.882000000
O     1.096000000     3.076000000    -4.809000000
H     1.402000000     2.173000000    -4.888000000
H     0.152000000     2.998000000    -4.673000000
O     0.664000000    -4.406000000     0.128000000
H     0.914000000    -5.089000000     0.751000000
H    -0.186000000    -4.689000000    -0.209000000
O     4.470000000    -5.568000000    -3.225000000
H     5.345000000    -5.545000000    -3.612000000
H     3.900000000    -5.195000000    -3.897000000
O     3.625000000     1.740000000    -3.339000000
H     3.226000000     0.969000000    -2.935000000
H     4.244000000     2.061000000    -2.682000000
O    -4.487000000    -1.650000000    -2.303000000
H    -5.099000000    -2.360000000    -2.110000000
H    -5.033000000    -0.864000000    -2.326000000
O    -1.469000000     5.670000000    -2.819000000
H    -0.724000000     5.674000000    -2.218000000
H    -1.977000000     4.899000000    -2.566000000
O     1.118000000    -6.728000000    -4.825000000
H     0.948000000    -5.828000000    -4.547000000
H     0.513000000    -6.874000000    -5.552000000
O     0.309000000    -4.094000000    -5.174000000
H    -0.114000000    -3.533000000    -4.524000000
H     0.047000000    -3.723000000    -6.017000000
O    -0.013000000     1.069000000     7.439000000
H     0.299000000     0.366000000     8.009000000
H     0.032000000     1.856000000     7.981000000
O     3.230000000    -1.296000000    -0.663000000
H     3.400000000    -2.208000000    -0.902000000
H     2.283000000    -1.196000000    -0.759000000
O    -3.725000000    -0.925000000     0.365000000
H    -3.533000000    -1.824000000     0.632000000
H    -4.111000000    -1.011000000    -0.507000000
O    -2.336000000     3.494000000     2.852000000
H    -1.412000000     3.248000000     2.892000000
H    -2.462000000     3.808000000     1.957000000
O    -1.013000000    -7.922000000    -0.177000000
H    -0.127000000    -7.864000000    -0.535000000
H    -1.420000000    -7.087000000    -0.408000000
O     1.741000000     1.166000000     4.747000000
H     1.307000000     1.710000000     4.090000000
H     1.241000000     1.315000000     5.550000000
O     2.344000000     3.871000000     6.104000000
H     2.804000000     4.012000000     5.276000000
H     3.038000000     3.681000000     6.734000000
O     0.447000000     5.597000000    -0.716000000
H     0.602000000     4.788000000    -0.229000000
H     1.038000000     6.234000000    -0.314000000
O     3.126000000     3.869000000     1.091000000
H     2.177000000     3.781000000     1.176000000
H     3.248000000     4.669000000     0.579000000
O     3.168000000     6.236000000     0.054000000
H     3.603000000     6.295000000    -0.797000000
H     3.459000000     7.016000000     0.526000000
O     1.286000000     0.411000000    -6.359000000
H     1.558000000     1.059000000    -7.009000000
H     1.753000000    -0.387000000    -6.606000000
O    -2.700000000    -4.298000000    -5.366000000
H    -2.820000000    -5.197000000    -5.672000000
H    -3.536000000    -3.870000000    -5.548000000
O     2.957000000    -4.209000000    -5.467000000
H     3.117000000    -4.285000000    -6.408000000
H     2.006000000    -4.135000000    -5.392000000
O    -1.912000000    -5.231000000    -0.493000000
H    -2.617000000    -4.883000000     0.053000000
H    -2.038000000    -4.810000000    -1.343000000
O    -3.035000000     3.802000000    -1.534000000
H    -2.827000000     3.275000000    -0.762000000
H    -3.949000000     3.593000000    -1.727000000
O    -2.523000000    -3.672000000    -2.639000000
H    -2.497000000    -3.973000000    -3.548000000
H    -2.967000000    -2.825000000    -2.679000000
O    -4.166000000    -4.035000000     0.819000000
H    -4.817000000    -3.761000000     0.173000000
H    -4.682000000    -4.302000000     1.580000000
O    -4.470000000     2.189000000     4.114000000
H    -3.862000000     2.731000000     3.612000000
H    -4.316000000     1.299000000     3.797000000
