158
-3019.97212
C     0.211000000     1.467000000    -0.222000000
H     0.159000000     2.538000000    -0.397000000
C     0.057000000     0.395000000    -1.194000000
H     0.034000000     0.703000000    -2.236000000
C    -0.077000000    -0.943000000    -0.830000000
H    -0.330000000    -1.674000000    -1.579000000
C     0.005000000    -1.285000000     0.567000000
H    -0.150000000    -2.314000000     0.880000000
C     0.234000000    -0.237000000     1.455000000
H     0.169000000    -0.423000000     2.524000000
C     0.308000000     1.118000000     1.087000000
C     0.183000000     2.146000000     2.123000000
O     0.434000000     3.307000000     1.838000000
O    -0.026000000     1.851000000     3.287000000
O    -0.411000000     2.153000000     5.920000000
H    -0.323000000     2.249000000     4.972000000
H     0.464000000     2.339000000     6.262000000
O     0.571000000    -1.122000000    -4.904000000
H     0.845000000    -0.211000000    -5.010000000
H     1.170000000    -1.619000000    -5.461000000
O     3.324000000     6.610000000     4.977000000
H     2.859000000     5.815000000     4.716000000
H     4.152000000     6.572000000     4.497000000
O    -3.199000000     0.319000000     0.774000000
H    -2.726000000    -0.122000000     0.069000000
H    -3.995000000     0.650000000     0.358000000
O    -3.128000000    -0.937000000    -2.773000000
H    -2.733000000    -0.068000000    -2.700000000
H    -4.065000000    -0.767000000    -2.869000000
O    -1.717000000    -4.594000000     4.142000000
H    -1.531000000    -5.293000000     4.768000000
H    -1.663000000    -5.018000000     3.286000000
O    -1.821000000     4.406000000    -1.484000000
H    -1.132000000     4.922000000    -1.066000000
H    -2.378000000     4.120000000    -0.760000000
O     0.311000000     5.517000000     5.455000000
H     1.098000000     5.023000000     5.225000000
H     0.479000000     5.836000000     6.341000000
O     4.613000000    -0.971000000     4.265000000
H     3.954000000    -0.772000000     3.600000000
H     4.448000000    -0.337000000     4.963000000
O    -3.958000000     5.678000000     3.836000000
H    -3.586000000     5.817000000     4.707000000
H    -3.274000000     5.212000000     3.354000000
O     3.740000000     0.224000000     1.473000000
H     3.194000000    -0.458000000     1.082000000
H     3.471000000     1.030000000     1.032000000
O    -3.264000000     2.032000000    -3.504000000
H    -4.179000000     1.977000000    -3.781000000
H    -3.003000000     2.928000000    -3.718000000
O     1.171000000     7.148000000     2.452000000
H     0.539000000     6.530000000     2.819000000
H     0.638000000     7.882000000     2.147000000
O     2.264000000    -5.901000000     2.641000000
H     1.348000000    -5.626000000     2.651000000
H     2.308000000    -6.612000000     3.281000000
O     2.016000000     4.056000000     4.079000000
H     1.572000000     3.848000000     3.256000000
H     2.537000000     3.277000000     4.274000000
O    -3.128000000    -2.372000000     5.431000000
H    -2.416000000    -2.817000000     4.973000000
H    -3.374000000    -1.652000000     4.850000000
O    -2.913000000     3.137000000     6.156000000
H    -3.138000000     2.543000000     5.440000000
H    -1.992000000     2.953000000     6.339000000
O     3.517000000     1.880000000     3.827000000
H     2.957000000     1.143000000     4.068000000
H     3.935000000     1.606000000     3.011000000
O    -4.130000000    -0.591000000     3.697000000
H    -3.945000000    -0.783000000     2.778000000
H    -5.073000000    -0.728000000     3.786000000
O    -2.114000000    -1.916000000    -5.114000000
H    -2.271000000    -1.408000000    -4.318000000
H    -1.264000000    -1.610000000    -5.430000000
O     1.331000000     3.852000000    -4.214000000
H     1.493000000     2.909000000    -4.228000000
H     1.406000000     4.095000000    -3.292000000
O    -0.161000000    -6.639000000     0.910000000
H    -0.400000000    -5.920000000     0.324000000
H    -0.992000000    -6.927000000     1.287000000
O    -1.903000000     3.213000000    -6.223000000
H    -1.980000000     2.557000000    -5.530000000
H    -1.106000000     3.697000000    -6.006000000
O     3.820000000     2.139000000    -2.164000000
H     3.947000000     3.048000000    -2.435000000
H     3.270000000     2.196000000    -1.383000000
O    -3.589000000    -3.513000000    -2.004000000
H    -4.494000000    -3.601000000    -1.708000000
H    -3.384000000    -2.586000000    -1.879000000
O    -2.450000000     6.740000000     0.201000000
H    -1.563000000     6.458000000    -0.023000000
H    -2.857000000     5.963000000     0.584000000
O     2.925000000    -5.109000000    -2.724000000
H     3.113000000    -5.293000000    -1.803000000
H     2.188000000    -4.498000000    -2.700000000
O     0.781000000    -3.711000000    -3.548000000
H     0.581000000    -2.843000000    -3.897000000
H    -0.061000000    -4.167000000    -3.545000000
O    -1.152000000     0.096000000     8.192000000
H    -0.793000000    -0.782000000     8.321000000
H    -0.850000000     0.353000000     7.321000000
O     2.682000000    -1.123000000    -0.697000000
H     3.129000000    -1.238000000    -1.536000000
H     1.847000000    -0.716000000    -0.924000000
O     1.865000000    -2.021000000    -7.003000000
H     2.216000000    -1.669000000    -7.821000000
H     1.542000000    -2.891000000    -7.236000000
O    -1.215000000     4.701000000     3.555000000
H    -0.790000000     3.935000000     3.171000000
H    -0.602000000     5.005000000     4.224000000
O    -1.205000000    -8.060000000    -1.453000000
H    -1.379000000    -8.646000000    -0.717000000
H    -0.826000000    -7.278000000    -1.052000000
O     1.603000000     0.162000000     4.738000000
H     0.853000000     0.542000000     4.281000000
H     1.640000000     0.633000000     5.571000000
O     2.834000000    -2.861000000     1.539000000
H     3.214000000    -3.300000000     0.778000000
H     2.075000000    -2.393000000     1.191000000
O     2.197000000     2.302000000     6.524000000
H     3.086000000     2.193000000     6.186000000
H     2.310000000     2.406000000     7.468000000
O     1.062000000    -2.220000000     6.307000000
H     0.937000000    -3.012000000     5.785000000
H     1.346000000    -1.558000000     5.676000000
O     0.130000000     5.385000000     0.140000000
H     0.252000000     4.636000000     0.723000000
H     0.958000000     5.862000000     0.186000000
O     3.262000000     2.663000000     0.569000000
H     2.455000000     3.170000000     0.657000000
H     3.959000000     3.281000000     0.788000000
O     2.722000000     5.982000000     0.475000000
H     3.661000000     5.916000000     0.650000000
H     2.353000000     6.350000000     1.278000000
O     2.043000000     1.329000000    -4.914000000
H     2.054000000     1.385000000    -5.870000000
H     2.914000000     1.007000000    -4.683000000
O    -2.407000000    -4.256000000    -6.578000000
H    -3.218000000    -4.237000000    -7.086000000
H    -2.343000000    -3.382000000    -6.195000000
O     4.064000000    -2.740000000    -4.369000000
H     3.881000000    -2.898000000    -5.295000000
H     3.243000000    -2.948000000    -3.923000000
O    -1.112000000    -5.142000000    -1.020000000
H    -1.932000000    -4.648000000    -1.043000000
H    -0.782000000    -5.101000000    -1.918000000
O    -2.557000000     3.883000000     1.068000000
H    -2.704000000     3.070000000     1.551000000
H    -1.887000000     4.344000000     1.572000000
O    -1.708000000    -4.573000000    -3.805000000
H    -2.017000000    -4.406000000    -4.695000000
H    -2.406000000    -4.239000000    -3.242000000
O    -2.762000000     2.124000000     3.323000000
H    -1.891000000     1.744000000     3.207000000
H    -3.364000000     1.426000000     3.065000000
O    -4.535000000    -1.175000000    -6.482000000
H    -3.844000000    -1.558000000    -5.942000000
H    -4.737000000    -0.342000000    -6.057000000
