158
-2984.00234
C     0.534000000     1.269000000    -0.729000000
H     0.989000000     2.066000000    -1.312000000
C     0.551000000    -0.014000000    -1.210000000
H     1.100000000    -0.248000000    -2.119000000
C    -0.056000000    -1.073000000    -0.529000000
H    -0.089000000    -2.085000000    -1.020000000
C    -0.687000000    -0.875000000     0.725000000
H    -1.039000000    -1.757000000     1.252000000
C    -0.653000000     0.424000000     1.266000000
H    -1.016000000     0.475000000     2.290000000
C    -0.040000000     1.501000000     0.555000000
C    -0.010000000     2.822000000     1.260000000
O     0.231000000     3.804000000     0.676000000
O    -0.341000000     2.888000000     2.401000000
O     1.527000000     4.714000000     3.450000000
H     0.996000000     4.246000000     2.806000000
H     2.016000000     4.026000000     3.902000000
O    -0.544000000     0.569000000    -4.428000000
H     0.329000000     0.316000000    -4.728000000
H    -1.143000000     0.083000000    -4.996000000
O    -3.999000000     1.279000000     1.707000000
H    -3.987000000     0.323000000     1.668000000
H    -3.504000000     1.556000000     0.936000000
O     4.297000000    -2.096000000     1.641000000
H     3.598000000    -1.452000000     1.522000000
H     4.369000000    -2.530000000     0.791000000
O     2.912000000     4.150000000    -2.259000000
H     2.770000000     3.752000000    -3.118000000
H     2.054000000     4.117000000    -1.835000000
O    -1.990000000    -2.077000000     4.899000000
H    -1.985000000    -3.023000000     5.046000000
H    -2.918000000    -1.849000000     4.839000000
O    -1.881000000    -4.864000000    -2.191000000
H    -1.031000000    -4.559000000    -2.507000000
H    -2.334000000    -4.068000000    -1.914000000
O    -2.107000000     2.720000000    -4.701000000
H    -2.864000000     2.564000000    -4.136000000
H    -1.469000000     2.058000000    -4.433000000
O     3.708000000     0.071000000     4.053000000
H     3.141000000     0.076000000     3.282000000
H     3.103000000     0.037000000     4.795000000
O     3.965000000     1.478000000    -0.206000000
H     3.722000000     2.283000000     0.250000000
H     4.910000000     1.402000000    -0.071000000
O     2.242000000    -0.117000000     1.584000000
H     1.380000000    -0.248000000     1.190000000
H     2.602000000     0.642000000     1.124000000
O    -1.613000000     7.391000000     1.725000000
H    -0.735000000     7.182000000     2.044000000
H    -1.957000000     6.557000000     1.405000000
O     3.790000000    -3.764000000    -0.496000000
H     3.222000000    -4.215000000     0.129000000
H     4.171000000    -4.467000000    -1.023000000
O     1.191000000     7.531000000     3.140000000
H     1.040000000     6.586000000     3.143000000
H     1.725000000     7.686000000     2.361000000
O    -1.405000000     0.020000000     6.966000000
H    -1.909000000    -0.764000000     7.183000000
H    -1.328000000    -0.001000000     6.012000000
O    -5.338000000    -4.802000000    -0.342000000
H    -5.402000000    -5.655000000     0.087000000
H    -4.676000000    -4.329000000     0.163000000
O     0.827000000    -1.813000000     4.478000000
H     1.144000000    -0.921000000     4.618000000
H    -0.125000000    -1.743000000     4.551000000
O    -1.455000000     7.205000000     5.425000000
H    -1.591000000     6.450000000     4.853000000
H    -0.691000000     6.972000000     5.952000000
O    -2.545000000     1.979000000     3.943000000
H    -1.745000000     2.256000000     3.497000000
H    -3.109000000     1.651000000     3.243000000
O     2.119000000     2.377000000    -4.267000000
H     2.403000000     1.821000000    -3.542000000
H     1.183000000     2.509000000    -4.117000000
O    -0.716000000    -5.336000000     0.931000000
H    -0.683000000    -4.771000000     0.159000000
H    -1.134000000    -6.140000000     0.621000000
O     3.340000000     0.651000000    -2.645000000
H     3.817000000    -0.171000000    -2.526000000
H     3.331000000     1.050000000    -1.775000000
O    -3.881000000     1.260000000    -3.192000000
H    -3.220000000     1.068000000    -2.526000000
H    -4.520000000     0.552000000    -3.107000000
O    -1.479000000     5.230000000    -2.084000000
H    -0.794000000     5.594000000    -1.523000000
H    -2.091000000     4.814000000    -1.477000000
O    -0.873000000    -6.034000000    -4.596000000
H    -1.310000000    -5.704000000    -5.381000000
H    -1.579000000    -6.146000000    -3.959000000
O     0.978000000    -3.029000000    -6.365000000
H     1.716000000    -3.403000000    -5.883000000
H     0.538000000    -3.785000000    -6.754000000
O    -0.459000000     3.520000000     6.864000000
H    -0.408000000     3.347000000     7.804000000
H    -0.235000000     4.447000000     6.779000000
O     4.312000000    -1.856000000    -2.265000000
H     3.558000000    -1.990000000    -2.839000000
H     4.291000000    -2.602000000    -1.664000000
O    -2.399000000     0.729000000    -1.212000000
H    -2.817000000     0.151000000    -0.574000000
H    -1.533000000     0.346000000    -1.350000000
O     1.003000000     6.437000000    -3.810000000
H     0.718000000     6.355000000    -2.899000000
H     0.732000000     5.616000000    -4.220000000
O     3.474000000    -5.165000000     2.096000000
H     3.922000000    -5.349000000     2.922000000
H     2.704000000    -4.657000000     2.349000000
O    -1.871000000     4.885000000     3.913000000
H    -1.033000000     4.479000000     3.693000000
H    -2.493000000     4.502000000     3.293000000
O    -1.767000000    -7.426000000    -1.045000000
H    -1.287000000    -8.185000000    -1.375000000
H    -1.650000000    -6.756000000    -1.719000000
O     0.710000000     2.205000000     4.895000000
H     0.438000000     2.479000000     4.019000000
H     0.212000000     2.768000000     5.487000000
O     1.100000000    -4.108000000     3.030000000
H     0.940000000    -3.256000000     3.437000000
H     0.301000000    -4.290000000     2.536000000
O     1.001000000     5.783000000    -0.783000000
H     0.694000000     5.262000000    -0.041000000
H     1.869000000     6.088000000    -0.520000000
O     1.957000000     0.189000000     6.308000000
H     1.510000000     0.889000000     5.834000000
H     2.658000000     0.633000000     6.786000000
O     3.020000000     3.538000000     1.155000000
H     2.323000000     4.079000000     0.784000000
H     3.789000000     4.108000000     1.159000000
O     3.267000000     6.744000000     0.696000000
H     3.841000000     6.109000000     1.124000000
H     3.863000000     7.403000000     0.340000000
O     5.166000000     0.879000000    -5.226000000
H     4.542000000     0.809000000    -4.503000000
H     4.696000000     1.366000000    -5.902000000
O     5.477000000     4.442000000    -3.221000000
H     4.673000000     4.450000000    -2.701000000
H     6.176000000     4.311000000    -2.580000000
O     1.824000000    -0.183000000    -5.672000000
H     1.985000000     0.695000000    -6.017000000
H     2.012000000    -0.767000000    -6.407000000
O     1.051000000    -4.682000000    -2.632000000
H     1.966000000    -4.478000000    -2.826000000
H     1.052000000    -5.616000000    -2.426000000
O     1.908000000    -2.022000000    -3.834000000
H     1.018000000    -2.368000000    -3.890000000
H     1.890000000    -1.227000000    -4.367000000
O    -3.289000000    -2.653000000    -1.430000000
H    -3.423000000    -2.294000000    -0.553000000
H    -3.824000000    -2.100000000    -2.000000000
O    -2.496000000     5.047000000     1.115000000
H    -3.252000000     4.640000000     0.693000000
H    -1.791000000     4.408000000     1.012000000
O    -4.236000000    -1.507000000     1.663000000
H    -5.165000000    -1.620000000     1.462000000
H    -4.155000000    -1.775000000     2.578000000
O    -3.651000000     2.970000000     6.235000000
H    -2.877000000     3.444000000     6.537000000
H    -3.389000000     2.596000000     5.393000000
