158
-2986.56315
C    -0.044000000     1.442000000     0.241000000
H    -0.149000000     2.524000000     0.220000000
C     0.078000000     0.836000000    -0.990000000
H     0.226000000     1.474000000    -1.857000000
C     0.092000000    -0.524000000    -1.114000000
H     0.390000000    -0.855000000    -2.088000000
C    -0.242000000    -1.288000000     0.001000000
H    -0.189000000    -2.368000000    -0.110000000
C    -0.421000000    -0.720000000     1.260000000
H    -0.782000000    -1.362000000     2.059000000
C    -0.301000000     0.673000000     1.437000000
C    -0.397000000     1.379000000     2.714000000
O    -0.592000000     2.564000000     2.753000000
O    -0.164000000     0.796000000     3.750000000
O     1.095000000     5.533000000     6.587000000
H     1.241000000     6.254000000     5.975000000
H     0.505000000     4.940000000     6.122000000
O    -3.549000000    -0.696000000     2.716000000
H    -4.407000000    -0.834000000     2.314000000
H    -3.006000000    -1.403000000     2.367000000
O    -4.684000000     1.901000000     0.007000000
H    -4.253000000     2.338000000     0.743000000
H    -4.804000000     2.592000000    -0.644000000
O    -2.290000000    -4.995000000     1.337000000
H    -1.420000000    -5.158000000     0.972000000
H    -2.648000000    -4.290000000     0.797000000
O     3.536000000    -3.788000000    -2.372000000
H     2.794000000    -4.069000000    -2.906000000
H     4.297000000    -3.898000000    -2.942000000
O    -2.599000000     2.887000000    -4.445000000
H    -3.054000000     2.135000000    -4.824000000
H    -1.948000000     3.130000000    -5.103000000
O     2.782000000    -2.926000000     3.709000000
H     2.225000000    -2.215000000     4.026000000
H     3.632000000    -2.765000000     4.118000000
O     3.324000000     3.622000000     0.548000000
H     2.484000000     3.808000000     0.967000000
H     3.965000000     4.099000000     1.075000000
O     4.269000000     0.864000000     2.191000000
H     4.074000000     1.377000000     1.406000000
H     5.221000000     0.911000000     2.277000000
O     2.009000000     1.553000000     5.071000000
H     2.231000000     2.340000000     4.573000000
H     1.379000000     1.089000000     4.519000000
O     5.769000000    -0.483000000    -3.355000000
H     6.722000000    -0.501000000    -3.273000000
H     5.557000000    -1.270000000    -3.858000000
O     4.333000000    -1.571000000    -1.268000000
H     3.795000000    -2.255000000    -1.666000000
H     4.729000000    -1.115000000    -2.011000000
O    -0.291000000     1.773000000     7.066000000
H    -0.039000000     1.759000000     6.143000000
H    -0.721000000     2.620000000     7.184000000
O    -1.419000000     4.706000000    -0.182000000
H    -1.931000000     5.413000000     0.212000000
H    -0.712000000     4.546000000     0.442000000
O    -1.382000000     5.912000000    -3.022000000
H    -1.373000000     5.088000000    -2.535000000
H    -2.234000000     5.923000000    -3.458000000
O    -2.567000000     0.952000000     4.702000000
H    -1.647000000     0.886000000     4.449000000
H    -3.050000000     0.669000000     3.926000000
O     3.859000000     2.834000000    -3.365000000
H     3.721000000     2.273000000    -2.602000000
H     3.845000000     2.232000000    -4.110000000
O    -1.742000000    -0.445000000    -6.958000000
H    -1.111000000     0.006000000    -6.397000000
H    -1.294000000    -1.247000000    -7.226000000
O    -3.003000000     3.147000000     1.843000000
H    -3.171000000     3.949000000     2.338000000
H    -2.077000000     2.960000000     1.998000000
O    -0.963000000    -3.399000000     3.327000000
H    -1.571000000    -4.061000000     3.000000000
H    -0.169000000    -3.889000000     3.542000000
O     0.327000000     0.681000000    -5.647000000
H    -0.026000000     1.570000000    -5.678000000
H     1.010000000     0.671000000    -6.318000000
O     4.139000000    -4.741000000    -0.032000000
H     3.746000000    -4.579000000    -0.889000000
H     3.784000000    -4.051000000     0.529000000
O     4.944000000    -1.610000000     1.374000000
H     4.857000000    -1.553000000     0.422000000
H     4.592000000    -0.781000000     1.697000000
O     0.014000000    -6.513000000    -5.598000000
H    -0.121000000    -5.652000000    -5.203000000
H     0.564000000    -6.981000000    -4.970000000
O     0.506000000    -5.700000000     0.619000000
H     0.959000000    -4.914000000     0.923000000
H     0.333000000    -5.533000000    -0.308000000
O    -3.404000000     0.870000000     7.363000000
H    -2.691000000     1.443000000     7.646000000
H    -3.211000000     0.683000000     6.445000000
O    -3.135000000    -0.207000000    -0.743000000
H    -2.225000000     0.058000000    -0.871000000
H    -3.587000000     0.601000000    -0.500000000
O     1.459000000     6.905000000    -0.351000000
H     1.943000000     7.380000000    -1.026000000
H     0.890000000     6.310000000    -0.839000000
O     0.437000000    -2.110000000    -7.191000000
H    -0.015000000    -2.953000000    -7.244000000
H     1.030000000    -2.109000000    -7.942000000
O     3.879000000     0.585000000    -5.571000000
H     4.588000000     0.211000000    -6.094000000
H     3.640000000    -0.111000000    -4.959000000
O    -2.951000000     4.392000000     5.799000000
H    -2.950000000     4.284000000     6.750000000
H    -2.974000000     5.340000000     5.666000000
O     0.635000000    -4.131000000    -4.330000000
H     1.507000000    -4.355000000    -4.653000000
H     0.700000000    -3.209000000    -4.083000000
O    -0.558000000     3.892000000     4.928000000
H    -0.652000000     3.362000000     4.136000000
H    -1.452000000     3.998000000     5.253000000
O     0.515000000     4.810000000     1.841000000
H     0.070000000     4.081000000     2.273000000
H     0.008000000     5.582000000     2.091000000
O     0.174000000    -1.558000000     5.066000000
H    -0.542000000    -2.070000000     4.690000000
H     0.172000000    -0.740000000     4.568000000
O     2.653000000     3.956000000     3.931000000
H     3.327000000     3.968000000     3.252000000
H     1.969000000     4.538000000     3.601000000
O     1.713000000    -3.563000000     1.432000000
H     2.239000000    -3.333000000     2.198000000
H     1.339000000    -2.732000000     1.140000000
O     3.361000000     1.336000000    -1.220000000
H     2.587000000     1.620000000    -0.735000000
H     3.367000000     0.383000000    -1.126000000
O     2.023000000     4.867000000    -4.353000000
H     1.665000000     4.330000000    -5.060000000
H     2.436000000     4.239000000    -3.761000000
O    -3.085000000    -4.214000000    -2.721000000
H    -3.975000000    -4.216000000    -2.370000000
H    -3.012000000    -5.042000000    -3.195000000
O    -0.534000000    -5.205000000    -1.894000000
H    -1.328000000    -4.700000000    -1.718000000
H    -0.269000000    -4.936000000    -2.773000000
O     3.202000000     0.799000000     7.461000000
H     2.799000000     1.000000000     6.616000000
H     3.505000000    -0.105000000     7.372000000
O    -3.297000000    -2.718000000     0.042000000
H    -3.169000000    -3.199000000    -0.776000000
H    -2.971000000    -1.837000000    -0.145000000
O    -2.947000000     5.843000000     2.554000000
H    -2.788000000     6.667000000     2.093000000
H    -2.983000000     6.089000000     3.479000000
O    -4.014000000    -0.591000000    -3.372000000
H    -3.799000000    -0.049000000    -2.613000000
H    -3.735000000    -1.473000000    -3.123000000
O    -5.648000000    -1.775000000     1.072000000
H    -4.867000000    -1.875000000     0.527000000
H    -5.882000000    -2.669000000     1.321000000
O    -4.727000000     2.601000000     4.807000000
H    -4.270000000     3.392000000     5.092000000
H    -4.034000000     1.950000000     4.697000000
O     1.437000000    -1.529000000    -4.639000000
H     0.878000000    -0.762000000    -4.771000000
H     1.567000000    -1.885000000    -5.517000000
