158
-3038.48002
C     0.044000000     1.470000000     0.067000000
H    -0.195000000     2.528000000     0.141000000
C     0.072000000     0.711000000    -1.127000000
H    -0.183000000     1.124000000    -2.100000000
C     0.055000000    -0.662000000    -1.078000000
H    -0.183000000    -1.327000000    -1.896000000
C     0.117000000    -1.263000000     0.181000000
H     0.100000000    -2.333000000     0.370000000
C     0.239000000    -0.510000000     1.377000000
H     0.381000000    -1.027000000     2.322000000
C     0.217000000     0.917000000     1.307000000
C     0.009000000     1.770000000     2.554000000
O     0.260000000     2.970000000     2.506000000
O    -0.481000000     1.178000000     3.563000000
O     1.336000000     4.354000000     4.365000000
H     0.835000000     3.813000000     3.754000000
H     0.947000000     4.174000000     5.220000000
O    -1.900000000    -0.318000000    -4.531000000
H    -1.864000000    -0.677000000    -5.418000000
H    -2.355000000    -0.988000000    -4.021000000
O    -1.707000000    -4.233000000     3.117000000
H    -2.567000000    -4.489000000     2.785000000
H    -1.170000000    -5.021000000     3.024000000
O    -2.754000000    -6.834000000    -1.409000000
H    -3.060000000    -6.644000000    -2.296000000
H    -3.072000000    -6.099000000    -0.884000000
O    -3.642000000     2.384000000    -4.106000000
H    -2.844000000     1.857000000    -4.063000000
H    -4.085000000     2.083000000    -4.899000000
O     2.443000000     2.763000000    -6.461000000
H     3.158000000     3.194000000    -5.991000000
H     2.131000000     2.089000000    -5.858000000
O     3.064000000    -2.608000000     1.013000000
H     2.285000000    -3.058000000     1.340000000
H     3.641000000    -2.545000000     1.774000000
O     4.230000000     2.684000000    -0.885000000
H     3.543000000     3.053000000    -0.330000000
H     4.754000000     2.147000000    -0.292000000
O     3.437000000    -0.209000000    -0.256000000
H     2.970000000    -0.823000000     0.311000000
H     2.746000000     0.251000000    -0.731000000
O    -3.120000000     5.948000000     4.015000000
H    -2.331000000     5.914000000     3.474000000
H    -3.757000000     5.411000000     3.544000000
O    -1.347000000     4.048000000    -4.576000000
H    -2.144000000     3.750000000    -4.138000000
H    -0.671000000     4.003000000    -3.900000000
O     1.657000000     6.546000000     1.521000000
H     1.543000000     6.791000000     2.439000000
H     2.534000000     6.858000000     1.297000000
O     3.130000000     6.458000000     4.633000000
H     2.407000000     5.832000000     4.675000000
H     2.704000000     7.315000000     4.613000000
O     2.936000000    -0.086000000     3.980000000
H     3.155000000     0.785000000     3.649000000
H     1.994000000    -0.168000000     3.835000000
O     4.007000000    -0.609000000    -4.195000000
H     4.212000000    -0.324000000    -5.086000000
H     4.512000000    -0.020000000    -3.634000000
O    -1.279000000    -1.464000000     6.583000000
H    -0.663000000    -1.767000000     5.916000000
H    -1.834000000    -0.832000000     6.127000000
O    -3.253000000     3.621000000     1.212000000
H    -3.891000000     4.147000000     1.694000000
H    -2.684000000     3.255000000     1.889000000
O     1.944000000     3.616000000     7.700000000
H     1.297000000     4.046000000     8.259000000
H     1.468000000     3.417000000     6.893000000
O    -2.033000000     3.677000000    -1.340000000
H    -2.435000000     3.606000000    -0.474000000
H    -2.521000000     3.056000000    -1.882000000
O    -2.400000000    -0.786000000     3.546000000
H    -1.668000000    -0.172000000     3.498000000
H    -2.031000000    -1.621000000     3.260000000
O    -4.553000000    -3.040000000    -5.545000000
H    -3.984000000    -2.817000000    -4.807000000
H    -3.966000000    -3.440000000    -6.187000000
O     1.256000000     0.729000000    -4.623000000
H     0.518000000     0.299000000    -4.192000000
H     1.962000000     0.083000000    -4.591000000
O     0.426000000    -6.052000000     2.961000000
H     0.908000000    -5.967000000     2.139000000
H     0.048000000    -6.931000000     2.928000000
O    -1.064000000    -2.866000000    -5.970000000
H    -1.449000000    -2.975000000    -5.101000000
H    -1.587000000    -2.177000000    -6.379000000
O    -1.113000000     5.626000000     1.922000000
H    -0.605000000     6.152000000     1.305000000
H    -0.602000000     4.824000000     2.032000000
O     1.577000000    -5.077000000    -2.216000000
H     2.049000000    -4.259000000    -2.374000000
H     1.023000000    -5.186000000    -2.989000000
O    -2.704000000     1.191000000     6.763000000
H    -3.025000000     2.087000000     6.665000000
H    -2.403000000     1.142000000     7.670000000
O     1.664000000    -5.543000000     0.469000000
H     2.305000000    -6.224000000     0.268000000
H     1.327000000    -5.271000000    -0.385000000
O    -3.193000000    -1.476000000    -1.169000000
H    -2.446000000    -1.063000000    -0.738000000
H    -3.827000000    -0.768000000    -1.282000000
O    -0.430000000     6.761000000    -2.289000000
H    -1.223000000     6.519000000    -1.810000000
H    -0.011000000     5.925000000    -2.495000000
O     0.419000000     3.997000000    -2.437000000
H     1.305000000     4.006000000    -2.075000000
H    -0.146000000     3.834000000    -1.682000000
O    -1.488000000     4.233000000     6.228000000
H    -0.955000000     3.467000000     6.439000000
H    -2.300000000     4.102000000     6.718000000
O     0.412000000     1.972000000     6.123000000
H     0.305000000     1.649000000     5.228000000
H     0.463000000     1.180000000     6.659000000
O     5.017000000    -3.885000000    -5.024000000
H     4.298000000    -4.361000000    -5.438000000
H     4.591000000    -3.327000000    -4.373000000
O     2.193000000     3.771000000     0.766000000
H     1.373000000     3.478000000     1.163000000
H     2.320000000     4.658000000     1.105000000
O     0.260000000    -2.681000000     4.555000000
H    -0.169000000    -3.323000000     3.988000000
H     0.807000000    -3.206000000     5.139000000
O     3.214000000     2.311000000     3.160000000
H     3.834000000     2.500000000     2.455000000
H     2.582000000     3.028000000     3.122000000
O     4.202000000     5.306000000     1.963000000
H     3.754000000     5.057000000     2.771000000
H     5.133000000     5.271000000     2.185000000
O     3.281000000    -2.762000000    -1.958000000
H     3.231000000    -2.607000000    -1.015000000
H     3.398000000    -1.892000000    -2.338000000
O    -0.023000000     0.968000000    -7.201000000
H     0.743000000     0.613000000    -7.653000000
H     0.217000000     0.953000000    -6.275000000
O    -2.059000000    -5.786000000    -3.951000000
H    -2.616000000    -6.460000000    -4.342000000
H    -1.172000000    -6.020000000    -4.226000000
O    -3.108000000     6.451000000    -0.418000000
H    -2.716000000     5.700000000     0.028000000
H    -3.641000000     6.065000000    -1.113000000
O     3.832000000    -2.096000000     5.385000000
H     3.413000000    -1.349000000     4.959000000
H     4.200000000    -2.608000000     4.663000000
O    -4.067000000    -4.363000000    -0.792000000
H    -5.008000000    -4.410000000    -0.960000000
H    -3.851000000    -3.436000000    -0.892000000
O    -2.361000000     3.081000000     3.985000000
H    -1.636000000     2.465000000     4.098000000
H    -2.130000000     3.826000000     4.539000000
O    -2.586000000    -3.160000000    -3.786000000
H    -2.635000000    -2.816000000    -2.894000000
H    -2.396000000    -4.092000000    -3.672000000
O    -4.376000000     0.822000000     4.238000000
H    -3.731000000     1.499000000     4.034000000
H    -3.869000000     0.011000000     4.274000000
O    -2.550000000    -0.990000000    -7.223000000
H    -2.777000000    -0.090000000    -7.455000000
H    -2.362000000    -1.413000000    -8.061000000
