158
-3044.54079
C    -0.190000000     1.363000000    -0.524000000
H    -0.408000000     2.301000000    -1.030000000
C    -0.501000000     0.172000000    -1.224000000
H    -0.886000000     0.232000000    -2.239000000
C    -0.298000000    -1.062000000    -0.595000000
H    -0.690000000    -1.957000000    -1.080000000
C     0.295000000    -1.143000000     0.655000000
H     0.368000000    -2.076000000     1.209000000
C     0.592000000     0.062000000     1.311000000
H     0.931000000     0.024000000     2.343000000
C     0.422000000     1.320000000     0.765000000
C     0.776000000     2.651000000     1.442000000
O     0.442000000     3.745000000     1.119000000
O     1.233000000     2.438000000     2.521000000
O     0.996000000     1.531000000     5.181000000
H     1.082000000     1.819000000     4.272000000
H     0.957000000     2.343000000     5.687000000
O     0.525000000    -3.026000000    -5.202000000
H     0.749000000    -2.097000000    -5.160000000
H    -0.378000000    -3.069000000    -4.887000000
O    -3.778000000    -1.855000000    -0.715000000
H    -4.442000000    -2.255000000    -1.277000000
H    -3.881000000    -0.914000000    -0.855000000
O    -1.967000000    -2.220000000    -3.851000000
H    -2.472000000    -1.411000000    -3.930000000
H    -2.597000000    -2.867000000    -3.536000000
O     4.774000000    -1.260000000     2.080000000
H     5.065000000    -0.655000000     1.397000000
H     4.061000000    -0.798000000     2.522000000
O    -0.163000000     4.781000000    -2.837000000
H     0.076000000     5.514000000    -3.403000000
H    -0.352000000     5.184000000    -1.990000000
O    -3.894000000     2.805000000    -3.561000000
H    -2.994000000     2.644000000    -3.846000000
H    -3.805000000     3.400000000    -2.816000000
O     0.971000000     4.414000000     5.576000000
H     0.593000000     4.726000000     6.399000000
H     1.095000000     5.206000000     5.054000000
O     3.969000000    -4.127000000     1.050000000
H     3.028000000    -4.026000000     0.909000000
H     4.224000000    -3.342000000     1.535000000
O    -2.806000000     6.537000000     2.910000000
H    -2.291000000     7.047000000     2.285000000
H    -2.170000000     5.958000000     3.329000000
O     3.084000000    -0.946000000    -1.791000000
H     2.270000000    -0.626000000    -1.401000000
H     3.651000000    -1.130000000    -1.042000000
O    -3.890000000     0.017000000    -3.938000000
H    -4.536000000    -0.481000000    -3.437000000
H    -3.891000000     0.885000000    -3.536000000
O     1.448000000     7.893000000     3.027000000
H     1.238000000     7.572000000     3.904000000
H     2.243000000     7.418000000     2.782000000
O     4.455000000    -5.120000000    -1.882000000
H     3.589000000    -4.920000000    -2.237000000
H     4.344000000    -5.065000000    -0.933000000
O     2.469000000    -7.477000000     0.341000000
H     1.815000000    -7.965000000     0.842000000
H     2.071000000    -6.618000000     0.199000000
O     3.439000000     3.684000000     3.280000000
H     2.633000000     3.248000000     3.002000000
H     3.710000000     3.209000000     4.066000000
O    -2.249000000    -6.062000000     2.278000000
H    -2.872000000    -5.911000000     2.990000000
H    -2.272000000    -5.254000000     1.765000000
O     3.272000000     0.643000000     3.110000000
H     2.516000000     1.121000000     2.769000000
H     3.752000000     1.290000000     3.627000000
O    -3.111000000    -1.387000000     3.566000000
H    -3.628000000    -1.857000000     4.220000000
H    -2.227000000    -1.740000000     3.661000000
O     1.086000000    -5.018000000     3.747000000
H     0.744000000    -5.911000000     3.802000000
H     1.843000000    -5.015000000     4.333000000
O     1.369000000    -6.655000000    -4.374000000
H     0.553000000    -6.192000000    -4.184000000
H     2.053000000    -5.997000000    -4.249000000
O    -1.319000000     1.990000000    -4.364000000
H    -0.803000000     1.221000000    -4.603000000
H    -0.668000000     2.658000000    -4.148000000
O    -4.410000000     0.838000000     2.048000000
H    -3.828000000     0.187000000     2.439000000
H    -4.000000000     1.679000000     2.249000000
O    -0.671000000    -5.007000000    -0.975000000
H    -0.572000000    -5.464000000    -1.810000000
H    -1.173000000    -4.221000000    -1.189000000
O    -2.143000000    -0.671000000    -6.924000000
H    -1.982000000    -0.629000000    -5.981000000
H    -1.278000000    -0.565000000    -7.319000000
O     2.775000000     3.515000000    -2.809000000
H     3.174000000     4.178000000    -2.245000000
H     2.086000000     3.983000000    -3.280000000
O    -3.968000000    -6.361000000    -0.213000000
H    -3.751000000    -5.542000000     0.232000000
H    -4.699000000    -6.721000000     0.290000000
O    -3.455000000     4.232000000    -1.525000000
H    -4.064000000     3.993000000    -0.826000000
H    -2.689000000     4.577000000    -1.067000000
O    -5.518000000    -2.405000000    -2.646000000
H    -6.011000000    -2.861000000    -3.327000000
H    -6.029000000    -1.616000000    -2.466000000
O     2.034000000    -4.152000000    -2.947000000
H     1.634000000    -4.184000000    -2.078000000
H     1.466000000    -3.568000000    -3.450000000
O    -1.261000000     0.016000000     6.299000000
H    -1.608000000    -0.127000000     5.418000000
H    -0.693000000     0.782000000     6.211000000
O     2.730000000    -0.960000000    -4.702000000
H     3.435000000    -1.541000000    -4.987000000
H     2.845000000    -0.891000000    -3.754000000
O    -0.387000000     4.999000000     3.377000000
H     0.022000000     4.618000000     2.600000000
H    -0.092000000     4.445000000     4.100000000
O     1.839000000    -1.094000000     5.217000000
H     1.379000000    -0.275000000     5.403000000
H     2.606000000    -0.828000000     4.710000000
O     1.325000000    -4.622000000     0.897000000
H     1.198000000    -4.907000000     1.802000000
H     0.516000000    -4.873000000     0.451000000
O     4.018000000     1.872000000     5.371000000
H     3.936000000     0.919000000     5.329000000
H     3.563000000     2.117000000     6.176000000
O    -0.129000000    -2.737000000     3.834000000
H     0.227000000    -3.588000000     3.579000000
H     0.563000000    -2.334000000     4.358000000
O    -1.154000000     5.338000000    -0.314000000
H    -0.424000000     4.811000000     0.014000000
H    -1.171000000     6.105000000     0.258000000
O     2.513000000     4.928000000    -0.292000000
H     1.575000000     4.925000000    -0.101000000
H     2.860000000     4.184000000     0.200000000
O    -3.352000000    -3.963000000     0.980000000
H    -4.229000000    -3.598000000     1.092000000
H    -2.835000000    -3.241000000     0.623000000
O     3.531000000     6.366000000     2.181000000
H     3.584000000     5.681000000     1.515000000
H     3.678000000     5.908000000     3.008000000
O     0.342000000     0.123000000    -5.390000000
H     0.624000000     0.213000000    -6.300000000
H     1.134000000    -0.134000000    -4.918000000
O     3.566000000    -3.887000000    -5.314000000
H     3.020000000    -4.278000000    -5.995000000
H     3.181000000    -4.192000000    -4.493000000
O    -0.831000000     7.754000000     1.331000000
H    -0.047000000     7.645000000     1.868000000
H    -0.761000000     8.643000000     0.981000000
O    -1.246000000    -5.654000000    -3.596000000
H    -1.671000000    -5.747000000    -4.449000000
H    -1.587000000    -6.384000000    -3.079000000
O    -4.387000000     0.773000000    -0.807000000
H    -4.714000000     0.712000000     0.091000000
H    -3.444000000     0.630000000    -0.728000000
O     2.474000000     7.449000000    -1.423000000
H     3.062000000     7.200000000    -2.136000000
H     2.302000000     6.630000000    -0.957000000
O    -2.834000000     2.375000000     4.275000000
H    -2.981000000     2.989000000     4.995000000
H    -2.095000000     2.745000000     3.792000000
