158
-3024.63165
C     1.130000000     0.179000000    -0.949000000
H     2.112000000     0.285000000    -1.403000000
C     1.138000000    -0.423000000     0.350000000
H     2.104000000    -0.783000000     0.695000000
C    -0.033000000    -0.577000000     1.091000000
H     0.097000000    -1.119000000     2.085000000
C    -1.234000000    -0.075000000     0.613000000
H    -2.158000000    -0.173000000     1.178000000
C    -1.217000000     0.487000000    -0.669000000
H    -2.139000000     0.786000000    -1.161000000
C    -0.053000000     0.761000000    -1.422000000
C     0.014000000     1.443000000    -2.811000000
O    -1.017000000     1.784000000    -3.314000000
O     1.097000000     1.469000000    -3.421000000
O     3.067000000     1.115000000     5.851000000
H     3.860000000     0.665000000     5.560000000
H     2.353000000     0.651000000     5.414000000
O     1.123000000     3.380000000    -5.336000000
H     1.208000000     2.780000000    -6.076000000
H     0.948000000     2.813000000    -4.586000000
O    -0.331000000     6.557000000    -3.035000000
H     0.375000000     5.934000000    -2.862000000
H    -0.754000000     6.682000000    -2.185000000
O    -5.446000000    -1.207000000    -1.896000000
H    -6.222000000    -1.447000000    -2.403000000
H    -5.762000000    -1.131000000    -0.996000000
O    -3.996000000    -1.453000000     2.747000000
H    -3.553000000    -2.046000000     2.141000000
H    -4.679000000    -1.037000000     2.220000000
O    -0.601000000     0.582000000    -5.859000000
H    -0.437000000     0.833000000    -4.950000000
H    -1.497000000     0.873000000    -6.030000000
O    -3.138000000     6.288000000    -1.179000000
H    -2.736000000     5.464000000    -1.456000000
H    -2.403000000     6.828000000    -0.890000000
O    -1.939000000     4.092000000     2.476000000
H    -2.302000000     3.263000000     2.164000000
H    -1.471000000     4.448000000     1.720000000
O    -1.565000000    -3.075000000     4.376000000
H    -1.313000000    -2.152000000     4.397000000
H    -0.749000000    -3.550000000     4.528000000
O    -1.604000000     3.692000000    -4.902000000
H    -1.443000000     2.912000000    -4.371000000
H    -0.781000000     4.181000000    -4.864000000
O    -4.936000000    -0.755000000    -5.436000000
H    -4.025000000    -0.987000000    -5.616000000
H    -4.899000000     0.160000000    -5.156000000
O    -3.978000000    -2.975000000     5.450000000
H    -3.068000000    -3.079000000     5.173000000
H    -4.456000000    -2.796000000     4.640000000
O     3.195000000     3.607000000     2.398000000
H     2.341000000     3.191000000     2.516000000
H     3.544000000     3.693000000     3.284000000
O     1.848000000    -0.848000000     4.031000000
H     2.691000000    -0.963000000     3.592000000
H     1.558000000    -1.739000000     4.230000000
O    -4.546000000     2.396000000    -0.824000000
H    -4.311000000     1.963000000    -0.003000000
H    -5.472000000     2.615000000    -0.723000000
O    -4.278000000     1.210000000    -3.431000000
H    -4.618000000     0.478000000    -2.916000000
H    -4.055000000     1.877000000    -2.781000000
O     0.814000000     0.339000000    -8.559000000
H     0.357000000    -0.500000000    -8.495000000
H     1.410000000     0.345000000    -7.811000000
O     1.353000000    -3.338000000     4.414000000
H     1.806000000    -4.065000000     3.988000000
H     1.333000000    -3.578000000     5.341000000
O     0.938000000     1.852000000     2.924000000
H     0.390000000     1.585000000     3.662000000
H     1.302000000     1.034000000     2.586000000
O     6.324000000    -0.438000000     1.180000000
H     6.337000000    -0.529000000     0.227000000
H     7.216000000    -0.176000000     1.408000000
O     2.400000000    -2.599000000    -3.843000000
H     1.490000000    -2.367000000    -4.027000000
H     2.514000000    -3.458000000    -4.250000000
O    -0.700000000    -0.337000000     4.935000000
H    -0.514000000    -0.046000000     5.828000000
H     0.141000000    -0.273000000     4.483000000
O     5.942000000     0.866000000    -3.776000000
H     5.345000000     1.484000000    -3.354000000
H     5.597000000     0.003000000    -3.545000000
O     4.896000000     0.871000000    -6.715000000
H     4.362000000     0.665000000    -5.948000000
H     5.406000000     1.637000000    -6.454000000
O    -0.848000000    -2.967000000    -1.090000000
H    -1.017000000    -2.142000000    -1.547000000
H     0.055000000    -2.889000000    -0.782000000
O    -4.126000000     4.491000000    -5.561000000
H    -4.016000000     5.405000000    -5.297000000
H    -3.521000000     4.006000000    -4.999000000
O    -3.833000000     2.001000000     1.869000000
H    -4.313000000     2.788000000     2.129000000
H    -3.687000000     1.528000000     2.688000000
O     4.586000000    -1.305000000    -2.809000000
H     3.716000000    -1.638000000    -3.029000000
H     4.853000000    -1.818000000    -2.047000000
O     4.246000000    -1.012000000     3.108000000
H     4.859000000    -1.161000000     2.388000000
H     4.797000000    -0.727000000     3.837000000
O    -1.919000000     3.548000000    -1.329000000
H    -1.581000000     3.128000000    -2.119000000
H    -2.652000000     2.996000000    -1.058000000
O     2.489000000     0.097000000    -5.245000000
H     1.858000000     0.636000000    -4.767000000
H     2.461000000    -0.751000000    -4.802000000
O    -4.519000000    -3.225000000     0.095000000
H    -5.265000000    -3.368000000     0.678000000
H    -4.843000000    -2.608000000    -0.562000000
O     1.842000000     5.179000000    -2.303000000
H     2.568000000     5.576000000    -1.821000000
H     2.251000000     4.794000000    -3.078000000
O    -2.517000000    -4.830000000     0.206000000
H    -1.821000000    -4.265000000    -0.129000000
H    -3.279000000    -4.254000000     0.279000000
O     4.273000000     4.390000000    -4.415000000
H     5.208000000     4.292000000    -4.591000000
H     4.111000000     3.827000000    -3.658000000
O     3.597000000     2.218000000     0.158000000
H     3.748000000     1.446000000     0.703000000
H     3.141000000     2.832000000     0.733000000
O    -0.142000000    -2.006000000    -4.897000000
H    -0.967000000    -1.847000000    -4.439000000
H     0.019000000    -1.199000000    -5.386000000
O    -2.024000000    -1.256000000    -3.181000000
H    -2.837000000    -1.568000000    -2.784000000
H    -2.061000000    -0.304000000    -3.090000000
O     2.171000000    -5.904000000     3.954000000
H     2.213000000    -5.869000000     2.999000000
H     2.706000000    -6.662000000     4.190000000
O     5.200000000    -3.782000000     1.700000000
H     6.132000000    -3.565000000     1.673000000
H     4.774000000    -3.064000000     1.232000000
O    -2.835000000    -6.385000000     3.522000000
H    -2.460000000    -5.607000000     3.110000000
H    -2.859000000    -6.174000000     4.456000000
O     3.645000000     2.484000000    -2.649000000
H     2.836000000     1.992000000    -2.784000000
H     3.886000000     2.307000000    -1.740000000
O     1.798000000    -3.167000000    -1.110000000
H     1.949000000    -2.606000000    -1.872000000
H     2.470000000    -3.845000000    -1.175000000
O     1.009000000     6.191000000    -6.142000000
H     1.184000000     5.265000000    -5.977000000
H     1.582000000     6.655000000    -5.532000000
O    -1.028000000     0.211000000     7.518000000
H    -1.282000000    -0.225000000     8.331000000
H    -1.661000000     0.923000000     7.420000000
O     0.470000000     3.556000000     0.083000000
H     0.011000000     2.721000000    -0.005000000
H     0.274000000     4.025000000    -0.728000000
O    -3.135000000     0.639000000     4.355000000
H    -2.251000000     0.479000000     4.684000000
H    -3.381000000    -0.178000000     3.921000000
O     2.602000000    -5.019000000     1.504000000
H     3.532000000    -4.812000000     1.408000000
H     2.354000000    -5.403000000     0.663000000
