158
-3044.38138
C     0.288000000     1.251000000     0.801000000
H     0.331000000     2.134000000     1.433000000
C    -0.370000000     1.197000000    -0.418000000
H    -0.826000000     2.086000000    -0.848000000
C    -0.506000000    -0.025000000    -1.103000000
H    -1.168000000    -0.140000000    -1.999000000
C    -0.055000000    -1.211000000    -0.567000000
H    -0.275000000    -2.140000000    -1.085000000
C     0.575000000    -1.185000000     0.710000000
H     0.830000000    -2.131000000     1.181000000
C     0.695000000     0.050000000     1.390000000
C     1.364000000     0.041000000     2.720000000
O     1.390000000     1.053000000     3.405000000
O     1.852000000    -0.985000000     3.215000000
O     1.307000000     0.599000000     6.173000000
H     1.468000000     0.589000000     5.230000000
H     1.045000000     1.500000000     6.362000000
O    -1.273000000    -2.900000000    -5.647000000
H    -1.368000000    -2.049000000    -6.076000000
H    -1.955000000    -2.906000000    -4.975000000
O     3.146000000     5.641000000     3.259000000
H     4.089000000     5.751000000     3.135000000
H     2.812000000     5.429000000     2.387000000
O    -1.090000000    -5.156000000    -1.524000000
H    -1.862000000    -4.892000000    -1.023000000
H    -1.415000000    -5.285000000    -2.415000000
O    -3.139000000    -3.371000000    -3.578000000
H    -3.875000000    -3.910000000    -3.866000000
H    -3.279000000    -3.256000000    -2.638000000
O     3.540000000    -2.786000000     1.690000000
H     4.085000000    -2.571000000     0.933000000
H     3.274000000    -1.936000000     2.041000000
O    -0.602000000     4.550000000    -2.408000000
H    -0.111000000     5.210000000    -1.919000000
H    -1.514000000     4.694000000    -2.156000000
O    -5.848000000     3.711000000    -2.626000000
H    -6.675000000     3.262000000    -2.803000000
H    -5.188000000     3.184000000    -3.075000000
O     0.035000000     3.040000000     6.916000000
H    -0.186000000     3.415000000     7.769000000
H     0.568000000     3.711000000     6.491000000
O     1.599000000    -4.266000000     0.376000000
H     1.937000000    -5.154000000     0.490000000
H     2.074000000    -3.744000000     1.023000000
O     4.057000000    -1.500000000    -0.628000000
H     3.458000000    -1.192000000    -1.307000000
H     4.219000000    -0.729000000    -0.084000000
O    -1.325000000     6.209000000     4.119000000
H    -2.226000000     5.888000000     4.092000000
H    -0.816000000     5.531000000     3.673000000
O     2.295000000    -1.069000000    -3.131000000
H     1.548000000    -0.589000000    -2.773000000
H     1.972000000    -1.962000000    -3.249000000
O    -4.322000000     1.811000000    -3.715000000
H    -4.896000000     1.705000000    -4.473000000
H    -3.445000000     1.898000000    -4.089000000
O     1.422000000    -3.711000000    -2.430000000
H     0.587000000    -4.161000000    -2.559000000
H     1.598000000    -3.798000000    -1.493000000
O     2.882000000    -6.257000000     2.142000000
H     2.110000000    -6.017000000     2.655000000
H     3.458000000    -6.697000000     2.767000000
O     3.458000000     2.699000000     2.944000000
H     2.962000000     1.939000000     3.249000000
H     3.880000000     3.041000000     3.731000000
O     4.671000000    -1.138000000     3.884000000
H     3.722000000    -1.248000000     3.836000000
H     4.817000000    -0.667000000     4.704000000
O     3.783000000     2.505000000    -1.316000000
H     3.395000000     2.266000000    -2.158000000
H     4.615000000     2.919000000    -1.544000000
O    -2.246000000    -3.607000000     5.071000000
H    -1.546000000    -3.034000000     4.759000000
H    -2.434000000    -4.182000000     4.328000000
O     4.459000000     3.159000000     5.454000000
H     5.344000000     3.395000000     5.732000000
H     4.216000000     2.428000000     6.023000000
O    -1.681000000     1.898000000    -4.271000000
H    -1.015000000     1.538000000    -4.857000000
H    -1.301000000     2.716000000    -3.950000000
O    -0.458000000    -6.983000000     0.476000000
H    -0.195000000    -7.753000000    -0.028000000
H    -0.435000000    -6.264000000    -0.155000000
O     4.665000000    -4.105000000    -1.261000000
H     5.361000000    -4.045000000    -1.916000000
H     4.321000000    -3.215000000    -1.195000000
O     1.590000000     1.659000000    -2.636000000
H     0.890000000     1.393000000    -2.040000000
H     1.197000000     2.343000000    -3.177000000
O    -3.605000000     2.185000000    -0.255000000
H    -2.941000000     1.515000000    -0.416000000
H    -3.115000000     2.930000000     0.091000000
O    -3.674000000    -3.280000000    -0.919000000
H    -3.146000000    -2.962000000    -0.186000000
H    -4.353000000    -3.816000000    -0.510000000
O     5.726000000    -3.896000000     2.833000000
H     4.940000000    -3.425000000     2.558000000
H     6.001000000    -3.455000000     3.637000000
O    -0.536000000    -5.178000000    -4.363000000
H    -0.649000000    -5.993000000    -4.852000000
H    -0.783000000    -4.491000000    -4.983000000
O    -1.259000000    -0.028000000     6.352000000
H    -1.504000000     0.482000000     5.580000000
H    -0.319000000     0.124000000     6.451000000
O     2.766000000     0.510000000    -5.367000000
H     3.296000000     0.039000000    -6.010000000
H     2.816000000    -0.028000000    -4.576000000
O    -5.976000000    -1.741000000    -0.488000000
H    -5.961000000    -0.828000000    -0.201000000
H    -5.064000000    -2.026000000    -0.430000000
O     1.006000000    -4.108000000    -6.678000000
H     0.508000000    -3.697000000    -5.971000000
H     0.372000000    -4.672000000    -7.121000000
O    -1.338000000     1.826000000     4.426000000
H    -0.445000000     1.831000000     4.081000000
H    -1.326000000     2.473000000     5.132000000
O     2.150000000    -2.187000000     6.754000000
H     1.745000000    -1.324000000     6.674000000
H     3.072000000    -2.039000000     6.545000000
O     0.245000000    -5.761000000     2.879000000
H    -0.599000000    -5.311000000     2.902000000
H     0.257000000    -6.204000000     2.031000000
O     0.163000000    -2.894000000     3.999000000
H     0.653000000    -2.074000000     3.934000000
H     0.314000000    -3.331000000     3.161000000
O    -2.964000000     5.496000000    -1.954000000
H    -3.197000000     6.251000000    -1.414000000
H    -3.796000000     5.199000000    -2.322000000
O     2.252000000     3.739000000     0.823000000
H     2.657000000     3.301000000     0.075000000
H     2.563000000     3.248000000     1.584000000
O    -2.431000000    -4.794000000     2.647000000
H    -3.323000000    -5.137000000     2.601000000
H    -2.441000000    -4.022000000     2.081000000
O     0.397000000     4.149000000     3.766000000
H     1.022000000     4.873000000     3.740000000
H     0.899000000     3.389000000     3.470000000
O     1.023000000     3.639000000    -4.531000000
H     1.789000000     4.212000000    -4.485000000
H     0.376000000     4.058000000    -3.965000000
O     0.020000000     0.746000000    -6.194000000
H     0.009000000     0.176000000    -6.963000000
H     0.947000000     0.818000000    -5.963000000
O     3.010000000    -3.894000000    -4.749000000
H     2.513000000    -4.138000000    -5.530000000
H     2.465000000    -4.182000000    -4.018000000
O    -2.489000000    -2.195000000     1.393000000
H    -3.297000000    -2.075000000     1.892000000
H    -1.919000000    -1.484000000     1.687000000
O     4.462000000     0.886000000     0.662000000
H     4.055000000     1.460000000     0.013000000
H     4.251000000     1.290000000     1.504000000
O     1.624000000     6.278000000    -0.270000000
H     2.488000000     6.688000000    -0.308000000
H     1.762000000     5.475000000     0.232000000
O    -5.979000000    -0.173000000    -3.092000000
H    -5.992000000    -0.509000000    -2.195000000
H    -5.239000000     0.434000000    -3.109000000
