158
-3024.42837
C    -0.557000000     1.171000000     0.644000000
H    -0.861000000     2.107000000     1.105000000
C    -0.631000000     0.917000000    -0.706000000
H    -0.972000000     1.670000000    -1.412000000
C    -0.224000000    -0.282000000    -1.219000000
H    -0.284000000    -0.454000000    -2.315000000
C     0.384000000    -1.224000000    -0.368000000
H     0.807000000    -2.053000000    -0.929000000
C     0.468000000    -0.990000000     1.019000000
H     0.994000000    -1.676000000     1.679000000
C     0.002000000     0.225000000     1.600000000
C     0.200000000     0.583000000     3.116000000
O    -0.391000000     1.493000000     3.651000000
O     1.081000000    -0.054000000     3.697000000
O     1.358000000     2.960000000     8.567000000
H     0.891000000     2.892000000     7.735000000
H     0.948000000     2.300000000     9.127000000
O    -2.777000000    -1.551000000     2.222000000
H    -2.854000000    -1.842000000     1.313000000
H    -2.890000000    -0.602000000     2.180000000
O    -3.574000000     1.100000000     2.206000000
H    -3.907000000     1.487000000     1.397000000
H    -3.066000000     1.800000000     2.615000000
O    -1.693000000    -5.625000000     0.914000000
H    -0.803000000    -5.517000000     0.580000000
H    -1.986000000    -4.735000000     1.107000000
O     3.684000000    -2.916000000    -3.438000000
H     3.364000000    -2.477000000    -4.226000000
H     4.414000000    -3.454000000    -3.743000000
O    -3.475000000     2.613000000    -4.442000000
H    -3.932000000     1.874000000    -4.845000000
H    -2.617000000     2.623000000    -4.865000000
O     4.382000000    -3.728000000     3.018000000
H     3.824000000    -3.012000000     3.321000000
H     4.832000000    -4.030000000     3.807000000
O     3.594000000     4.711000000     1.182000000
H     3.693000000     5.011000000     2.086000000
H     2.672000000     4.863000000     0.979000000
O    -1.054000000     2.462000000    -6.001000000
H    -1.173000000     2.472000000    -6.950000000
H    -0.176000000     2.820000000    -5.866000000
O     5.695000000     0.088000000     2.106000000
H     4.748000000     0.223000000     2.089000000
H     6.021000000     0.755000000     2.711000000
O    -2.684000000     3.346000000    -1.809000000
H    -3.163000000     3.083000000    -2.595000000
H    -2.194000000     4.124000000    -2.075000000
O     1.006000000    -1.141000000     7.356000000
H     1.651000000    -1.502000000     7.965000000
H     1.484000000    -1.044000000     6.532000000
O     3.142000000     1.096000000     2.153000000
H     2.448000000     0.646000000     2.635000000
H     3.072000000     2.010000000     2.430000000
O     3.861000000    -1.720000000    -0.828000000
H     3.385000000    -0.890000000    -0.867000000
H     3.829000000    -2.056000000    -1.724000000
O     2.515000000     0.910000000     5.634000000
H     2.019000000     0.467000000     4.945000000
H     1.846000000     1.296000000     6.199000000
O    -4.042000000     4.688000000     3.031000000
H    -3.532000000     3.942000000     3.346000000
H    -3.608000000     5.452000000     3.411000000
O     0.367000000     4.517000000     0.473000000
H    -0.578000000     4.369000000     0.507000000
H     0.704000000     4.100000000     1.266000000
O    -0.269000000     4.656000000    -2.482000000
H     0.127000000     4.706000000    -1.612000000
H     0.443000000     4.371000000    -3.054000000
O    -1.195000000    -1.655000000     4.628000000
H    -0.388000000    -1.143000000     4.678000000
H    -1.560000000    -1.444000000     3.768000000
O    -4.960000000    -2.851000000    -5.378000000
H    -4.359000000    -2.745000000    -4.640000000
H    -4.412000000    -3.186000000    -6.087000000
O     3.804000000     2.573000000    -2.288000000
H     3.442000000     1.843000000    -1.785000000
H     3.930000000     2.219000000    -3.168000000
O    -0.696000000    -2.141000000    -7.485000000
H    -0.289000000    -3.006000000    -7.433000000
H    -0.150000000    -1.655000000    -8.102000000
O    -2.432000000     4.802000000     0.793000000
H    -2.913000000     4.286000000     1.440000000
H    -2.909000000     4.664000000    -0.026000000
O     0.468000000    -4.105000000     4.495000000
H    -0.311000000    -3.549000000     4.520000000
H     0.147000000    -4.952000000     4.186000000
O     2.446000000    -1.623000000    -5.556000000
H     1.692000000    -1.598000000    -4.966000000
H     2.105000000    -1.312000000    -6.394000000
O    -1.037000000    -0.407000000    -5.374000000
H    -1.111000000     0.545000000    -5.426000000
H    -1.387000000    -0.721000000    -6.209000000
O     5.351000000    -5.177000000    -1.080000000
H     5.551000000    -5.167000000    -2.016000000
H     4.750000000    -4.443000000    -0.956000000
O     0.735000000    -5.594000000    -0.084000000
H     1.303000000    -4.921000000     0.292000000
H     0.821000000    -5.478000000    -1.030000000
O    -1.835000000    -1.148000000     7.407000000
H    -0.960000000    -0.970000000     7.753000000
H    -1.692000000    -1.801000000     6.721000000
O    -5.267000000    -2.056000000    -2.004000000
H    -5.726000000    -1.273000000    -1.700000000
H    -4.534000000    -1.719000000    -2.519000000
O     0.934000000     7.025000000    -0.533000000
H     0.617000000     7.143000000    -1.429000000
H     0.594000000     6.170000000    -0.269000000
O     4.749000000    -0.486000000    -4.666000000
H     4.983000000    -1.180000000    -4.050000000
H     3.829000000    -0.651000000    -4.875000000
O    -3.394000000     2.560000000     6.946000000
H    -3.056000000     2.325000000     7.810000000
H    -3.919000000     3.346000000     7.100000000
O     1.115000000    -5.228000000    -2.813000000
H     1.871000000    -5.628000000    -3.243000000
H     1.246000000    -4.287000000    -2.924000000
O     0.130000000     2.312000000     6.270000000
H     0.071000000     1.957000000     5.382000000
H    -0.280000000     3.174000000     6.211000000
O     1.130000000     3.624000000     2.798000000
H     0.676000000     2.829000000     3.079000000
H     1.835000000     3.735000000     3.435000000
O     2.354000000    -2.359000000     4.536000000
H     1.663000000    -3.016000000     4.610000000
H     1.915000000    -1.588000000     4.176000000
O     3.470000000     3.616000000     4.665000000
H     3.430000000     2.751000000     5.073000000
H     3.267000000     4.225000000     5.376000000
O     3.052000000    -3.978000000     0.547000000
H     3.473000000    -3.951000000     1.406000000
H     3.276000000    -3.139000000     0.144000000
O     2.496000000     0.507000000    -0.852000000
H     2.641000000     0.875000000     0.020000000
H     1.545000000     0.501000000    -0.955000000
O    -1.403000000    -4.274000000    -1.708000000
H    -1.969000000    -5.010000000    -1.476000000
H    -0.681000000    -4.670000000    -2.196000000
O    -4.453000000     2.347000000     0.002000000
H    -3.726000000     2.459000000    -0.610000000
H    -4.918000000     3.184000000    -0.022000000
O     5.156000000     0.558000000     6.008000000
H     4.201000000     0.561000000     5.948000000
H     5.337000000     0.616000000     6.947000000
O    -3.335000000    -2.764000000    -0.112000000
H    -2.563000000    -2.962000000    -0.641000000
H    -3.987000000    -2.459000000    -0.744000000
O    -2.716000000    -2.119000000    -3.554000000
H    -2.096000000    -1.455000000    -3.856000000
H    -2.328000000    -2.950000000    -3.828000000
O    -4.608000000    -1.525000000     5.751000000
H    -3.815000000    -1.284000000     5.271000000
H    -4.835000000    -0.740000000     6.248000000
O    -2.488000000     2.812000000     4.284000000
H    -2.864000000     2.804000000     5.164000000
H    -1.706000000     2.265000000     4.353000000
O    -0.005000000    -2.912000000    -4.849000000
H    -0.278000000    -2.156000000    -5.368000000
H    -0.232000000    -3.668000000    -5.390000000
