158
-3042.94946
C     0.669000000     1.179000000     0.631000000
H     1.042000000     2.176000000     0.855000000
C     0.081000000     1.163000000    -0.665000000
H     0.001000000     2.056000000    -1.279000000
C    -0.607000000     0.025000000    -1.070000000
H    -1.205000000    -0.022000000    -2.051000000
C    -0.636000000    -1.132000000    -0.250000000
H    -1.153000000    -2.058000000    -0.492000000
C     0.160000000    -1.170000000     0.922000000
H     0.233000000    -2.111000000     1.461000000
C     0.853000000     0.021000000     1.354000000
C     1.456000000     0.025000000     2.722000000
O     1.650000000     1.109000000     3.287000000
O     1.774000000    -0.987000000     3.321000000
O     2.890000000     0.388000000     5.673000000
H     2.998000000    -0.515000000     5.373000000
H     2.555000000     0.856000000     4.908000000
O     4.452000000     4.503000000     0.790000000
H     5.251000000     4.797000000     0.353000000
H     4.328000000     3.604000000     0.484000000
O    -1.783000000     0.164000000     3.658000000
H    -1.428000000     0.281000000     4.539000000
H    -2.193000000     1.004000000     3.451000000
O    -1.227000000    -2.401000000    -7.410000000
H    -0.608000000    -2.611000000    -6.710000000
H    -2.059000000    -2.258000000    -6.959000000
O     1.252000000    -2.772000000    -6.086000000
H     2.203000000    -2.674000000    -6.137000000
H     1.001000000    -2.266000000    -5.314000000
O     4.169000000     1.953000000     2.840000000
H     4.400000000     1.154000000     2.368000000
H     3.212000000     1.939000000     2.882000000
O     1.546000000    -5.696000000    -1.740000000
H     1.042000000    -6.509000000    -1.696000000
H     0.909000000    -5.009000000    -1.546000000
O     2.696000000     0.948000000    -2.442000000
H     2.655000000     1.180000000    -3.370000000
H     2.320000000     0.069000000    -2.398000000
O     4.343000000    -3.233000000     0.115000000
H     3.667000000    -3.382000000     0.776000000
H     5.128000000    -3.642000000     0.479000000
O    -6.320000000    -0.297000000    -2.851000000
H    -6.204000000     0.037000000    -3.740000000
H    -7.010000000    -0.956000000    -2.931000000
O    -0.706000000     1.038000000     6.333000000
H     0.062000000     1.495000000     5.990000000
H    -0.722000000     1.262000000     7.263000000
O     0.258000000    -2.098000000     5.079000000
H    -0.624000000    -1.951000000     4.739000000
H     0.832000000    -1.639000000     4.465000000
O     0.865000000    -1.442000000    -3.378000000
H     1.581000000    -1.697000000    -2.797000000
H     0.072000000    -1.595000000    -2.864000000
O     3.215000000    -1.857000000    -1.798000000
H     3.549000000    -2.355000000    -1.052000000
H     3.244000000    -2.474000000    -2.529000000
O    -1.510000000     6.324000000     2.327000000
H    -0.810000000     6.895000000     2.644000000
H    -1.071000000     5.500000000     2.117000000
O    -1.727000000     2.944000000    -3.991000000
H    -1.657000000     3.482000000    -4.780000000
H    -1.006000000     3.239000000    -3.435000000
O     2.449000000    -3.542000000     2.057000000
H     1.971000000    -2.746000000     2.290000000
H     2.280000000    -4.144000000     2.781000000
O     4.351000000     2.934000000     5.491000000
H     3.938000000     2.103000000     5.728000000
H     4.394000000     2.915000000     4.535000000
O     4.732000000    -0.548000000     1.090000000
H     5.577000000    -0.404000000     0.665000000
H     4.465000000    -1.422000000     0.805000000
O     1.270000000    -1.665000000     7.719000000
H     1.088000000    -1.916000000     6.813000000
H     0.521000000    -1.125000000     7.972000000
O    -3.877000000    -1.836000000     0.974000000
H    -3.240000000    -2.432000000     1.367000000
H    -4.569000000    -1.756000000     1.631000000
O    -2.577000000     5.089000000    -1.609000000
H    -2.629000000     4.439000000    -0.908000000
H    -2.649000000     5.932000000    -1.161000000
O     2.250000000     5.183000000     4.004000000
H     2.242000000     4.243000000     3.824000000
H     2.808000000     5.552000000     3.320000000
O    -2.801000000    -2.150000000    -5.045000000
H    -3.757000000    -2.189000000    -5.054000000
H    -2.598000000    -1.217000000    -5.100000000
O    -2.020000000     4.000000000     0.924000000
H    -2.738000000     3.383000000     1.063000000
H    -1.249000000     3.554000000     1.274000000
O    -3.067000000     0.780000000     0.252000000
H    -2.111000000     0.738000000     0.251000000
H    -3.341000000    -0.013000000     0.712000000
O     2.595000000     6.656000000     1.334000000
H     3.192000000     5.917000000     1.220000000
H     1.925000000     6.529000000     0.661000000
O    -5.429000000     1.759000000    -4.773000000
H    -4.646000000     1.695000000    -5.320000000
H    -5.105000000     1.656000000    -3.878000000
O     0.087000000    -5.595000000     1.370000000
H     0.653000000    -6.328000000     1.127000000
H     0.399000000    -5.328000000     2.235000000
O    -2.660000000    -3.362000000    -2.488000000
H    -2.376000000    -2.635000000    -3.041000000
H    -3.231000000    -3.884000000    -3.051000000
O    -2.216000000    -4.068000000     1.931000000
H    -2.724000000    -4.553000000     2.581000000
H    -1.425000000    -4.593000000     1.805000000
O     1.260000000     3.010000000     6.231000000
H     1.246000000     3.941000000     6.012000000
H     1.565000000     2.982000000     7.138000000
O     0.299000000     5.780000000    -0.982000000
H     0.598000000     5.228000000    -1.704000000
H    -0.608000000     5.510000000    -0.834000000
O     4.125000000    -1.743000000     4.140000000
H     4.728000000    -1.006000000     4.236000000
H     3.462000000    -1.431000000     3.524000000
O     3.294000000     0.341000000     8.403000000
H     3.072000000    -0.421000000     8.939000000
H     3.056000000     0.084000000     7.512000000
O     0.958000000    -4.694000000     4.214000000
H     1.600000000    -4.933000000     4.883000000
H     0.665000000    -3.818000000     4.466000000
O     4.482000000    -2.743000000     6.866000000
H     3.973000000    -2.740000000     6.055000000
H     4.783000000    -1.839000000     6.962000000
O    -4.969000000     1.730000000    -1.194000000
H    -5.232000000     0.999000000    -1.752000000
H    -4.166000000     1.431000000    -0.768000000
O     0.953000000     3.984000000    -3.326000000
H     1.121000000     3.060000000    -3.512000000
H     1.807000000     4.406000000    -3.414000000
O    -5.527000000    -3.437000000    -0.526000000
H    -5.200000000    -3.421000000    -1.425000000
H    -4.933000000    -2.862000000    -0.044000000
O    -0.374000000     3.011000000     2.940000000
H     0.248000000     2.285000000     2.982000000
H    -1.156000000     2.683000000     3.386000000
O     5.885000000    -4.319000000     4.089000000
H     6.248000000    -4.210000000     3.210000000
H     5.132000000    -3.729000000     4.112000000
O    -2.299000000     0.456000000    -5.085000000
H    -2.341000000     1.227000000    -4.519000000
H    -2.364000000     0.808000000    -5.973000000
O    -0.281000000     0.080000000    -7.774000000
H    -0.591000000    -0.813000000    -7.620000000
H     0.490000000     0.166000000    -7.214000000
O     4.565000000     1.896000000    -0.243000000
H     3.856000000     1.806000000    -0.879000000
H     4.533000000     1.087000000     0.268000000
O     1.966000000     1.848000000    -5.268000000
H     1.506000000     2.450000000    -5.853000000
H     2.287000000     1.153000000    -5.843000000
O    -1.837000000    -5.737000000    -0.839000000
H    -1.313000000    -5.369000000    -0.128000000
H    -2.262000000    -4.979000000    -1.241000000
O    -2.274000000    -2.309000000     4.124000000
H    -2.387000000    -1.368000000     3.992000000
H    -2.375000000    -2.688000000     3.251000000
