158
-3037.00544
C     0.404000000     1.295000000     0.549000000
H     0.745000000     2.307000000     0.748000000
C    -0.287000000     1.044000000    -0.638000000
H    -0.554000000     1.895000000    -1.259000000
C    -0.646000000    -0.203000000    -1.044000000
H    -1.246000000    -0.327000000    -1.950000000
C    -0.493000000    -1.255000000    -0.133000000
H    -0.945000000    -2.219000000    -0.349000000
C     0.300000000    -1.062000000     1.026000000
H     0.383000000    -1.907000000     1.706000000
C     0.815000000     0.171000000     1.340000000
C     1.652000000     0.356000000     2.568000000
O     2.066000000     1.468000000     2.803000000
O     2.066000000    -0.518000000     3.299000000
O     4.020000000     1.135000000     4.757000000
H     3.632000000     0.615000000     5.461000000
H     3.436000000     1.002000000     4.011000000
O     4.730000000     5.504000000     2.622000000
H     5.004000000     5.964000000     1.829000000
H     4.508000000     4.622000000     2.323000000
O    -1.014000000     1.780000000     6.231000000
H    -0.451000000     2.011000000     6.970000000
H    -1.521000000     2.573000000     6.059000000
O    -0.257000000     0.315000000    -6.516000000
H    -0.051000000    -0.292000000    -5.806000000
H    -0.307000000     1.172000000    -6.092000000
O     3.566000000    -1.225000000    -5.209000000
H     4.055000000    -1.851000000    -4.675000000
H     3.998000000    -1.251000000    -6.063000000
O     3.991000000     3.232000000     1.590000000
H     4.185000000     2.694000000     0.822000000
H     3.223000000     2.819000000     1.984000000
O     1.663000000    -5.842000000    -1.538000000
H     1.422000000    -6.167000000    -0.670000000
H     0.960000000    -5.235000000    -1.770000000
O     3.913000000     0.811000000    -3.002000000
H     4.775000000     1.177000000    -3.201000000
H     3.866000000     0.010000000    -3.524000000
O     3.491000000    -2.296000000     0.572000000
H     3.299000000    -1.794000000     1.364000000
H     3.608000000    -3.195000000     0.881000000
O    -5.506000000     0.793000000    -1.426000000
H    -4.908000000     1.050000000    -2.128000000
H    -6.365000000     0.752000000    -1.846000000
O     1.126000000    -0.086000000     6.081000000
H     0.622000000     0.696000000     5.855000000
H     1.633000000    -0.280000000     5.292000000
O    -4.686000000    -2.415000000    -7.186000000
H    -4.546000000    -2.245000000    -6.254000000
H    -5.633000000    -2.533000000    -7.268000000
O     2.165000000    -2.543000000    -2.613000000
H     2.628000000    -3.375000000    -2.512000000
H     2.556000000    -1.970000000    -1.953000000
O    -1.917000000     3.794000000    -3.971000000
H    -1.669000000     4.578000000    -3.481000000
H    -1.083000000     3.380000000    -4.196000000
O     1.079000000    -5.229000000     2.508000000
H     0.957000000    -4.503000000     3.119000000
H     0.224000000    -5.337000000     2.091000000
O     3.372000000     3.765000000     4.670000000
H     3.645000000     2.857000000     4.533000000
H     4.111000000     4.287000000     4.357000000
O     6.062000000     0.279000000     1.137000000
H     6.997000000     0.075000000     1.114000000
H     5.846000000     0.307000000     2.069000000
O     0.845000000     2.727000000    -3.992000000
H     1.068000000     2.439000000    -4.877000000
H     1.689000000     2.836000000    -3.555000000
O     2.302000000    -1.663000000     8.295000000
H     1.796000000    -1.215000000     7.617000000
H     1.887000000    -2.522000000     8.376000000
O    -2.790000000     0.624000000     2.794000000
H    -2.794000000    -0.070000000     2.134000000
H    -3.701000000     0.682000000     3.084000000
O    -3.984000000    -2.250000000    -4.640000000
H    -3.217000000    -2.720000000    -4.965000000
H    -3.634000000    -1.639000000    -3.992000000
O     0.490000000     5.573000000     1.342000000
H     0.496000000     5.183000000     0.468000000
H     0.560000000     4.827000000     1.938000000
O    -1.867000000     3.033000000     2.154000000
H    -1.080000000     3.185000000     2.678000000
H    -2.078000000     2.111000000     2.301000000
O     0.732000000    -1.818000000    -4.780000000
H     0.994000000    -2.077000000    -3.896000000
H     1.542000000    -1.520000000    -5.193000000
O     2.382000000     7.464000000     0.554000000
H     1.807000000     6.746000000     0.821000000
H     2.123000000     8.198000000     1.110000000
O    -0.887000000    -5.147000000     0.274000000
H    -1.352000000    -5.982000000     0.218000000
H    -0.909000000    -4.801000000    -0.619000000
O    -0.298000000    -3.907000000    -2.093000000
H     0.413000000    -3.274000000    -1.999000000
H    -0.717000000    -3.675000000    -2.922000000
O    -3.402000000    -2.297000000     1.619000000
H    -3.928000000    -3.048000000     1.894000000
H    -2.564000000    -2.676000000     1.353000000
O     2.175000000     4.204000000     7.150000000
H     2.670000000     3.968000000     6.366000000
H     1.808000000     5.066000000     6.952000000
O     0.297000000     4.472000000    -1.142000000
H     1.079000000     4.019000000    -1.459000000
H     0.128000000     5.147000000    -1.800000000
O     3.113000000    -2.446000000     5.005000000
H     3.650000000    -3.014000000     4.453000000
H     2.651000000    -1.879000000     4.388000000
O     2.504000000    -4.573000000     6.905000000
H     2.408000000    -3.914000000     6.218000000
H     3.450000000    -4.685000000     6.998000000
O    -4.375000000    -4.956000000     2.047000000
H    -4.231000000    -5.272000000     1.155000000
H    -3.740000000    -5.437000000     2.577000000
O     0.421000000    -3.287000000     4.466000000
H     0.316000000    -2.364000000     4.232000000
H    -0.255000000    -3.446000000     5.125000000
O    -2.455000000     4.726000000    -0.482000000
H    -1.506000000     4.616000000    -0.538000000
H    -2.748000000     4.005000000     0.075000000
O    -6.368000000    -3.020000000    -2.172000000
H    -5.839000000    -2.250000000    -1.966000000
H    -6.771000000    -3.265000000    -1.339000000
O    -2.708000000     0.695000000    -7.807000000
H    -1.980000000     0.505000000    -7.215000000
H    -2.289000000     0.944000000    -8.631000000
O     2.405000000     3.013000000    -1.579000000
H     2.306000000     2.064000000    -1.495000000
H     3.315000000     3.182000000    -1.336000000
O    -5.740000000    -1.360000000     0.118000000
H    -5.587000000    -0.538000000    -0.346000000
H    -5.076000000    -1.374000000     0.807000000
O     0.598000000     3.525000000     3.298000000
H     1.144000000     2.754000000     3.146000000
H     1.159000000     4.123000000     3.790000000
O    -3.117000000     4.267000000    -6.518000000
H    -2.273000000     4.665000000    -6.731000000
H    -3.030000000     3.995000000    -5.605000000
O    -4.481000000     2.190000000    -3.657000000
H    -3.821000000     2.871000000    -3.533000000
H    -4.572000000     2.114000000    -4.607000000
O     5.543000000    -2.898000000     6.887000000
H     6.108000000    -2.509000000     7.555000000
H     5.057000000    -2.157000000     6.525000000
O    -1.184000000    -3.875000000    -5.331000000
H    -0.339000000    -3.426000000    -5.299000000
H    -1.574000000    -3.593000000    -6.159000000
O     6.725000000     0.915000000     5.525000000
H     7.280000000     1.692000000     5.586000000
H     5.841000000     1.261000000     5.404000000
O     5.080000000     1.822000000    -0.841000000
H     4.640000000     1.309000000    -1.519000000
H     5.402000000     1.170000000    -0.218000000
O    -0.005000000     5.768000000    -3.588000000
H     0.146000000     6.674000000    -3.855000000
H     0.808000000     5.314000000    -3.811000000
O    -2.031000000    -0.627000000     5.254000000
H    -1.555000000     0.064000000     5.714000000
H    -2.248000000    -0.243000000     4.404000000
