158
-3034.92775
C     0.784000000     1.123000000     0.489000000
H     1.272000000     2.029000000     0.841000000
C    -0.042000000     1.164000000    -0.602000000
H    -0.048000000     2.091000000    -1.170000000
C    -0.699000000    -0.018000000    -1.014000000
H    -1.228000000     0.005000000    -1.968000000
C    -0.435000000    -1.247000000    -0.384000000
H    -0.916000000    -2.154000000    -0.740000000
C     0.231000000    -1.188000000     0.820000000
H     0.270000000    -2.084000000     1.434000000
C     0.943000000    -0.027000000     1.274000000
C     1.678000000     0.009000000     2.529000000
O     2.398000000     0.917000000     2.777000000
O     1.755000000    -1.007000000     3.232000000
O     1.517000000    -1.588000000     5.817000000
H     0.575000000    -1.753000000     5.770000000
H     1.742000000    -1.236000000     4.955000000
O     5.930000000     2.794000000     4.387000000
H     6.083000000     3.221000000     3.544000000
H     6.763000000     2.372000000     4.597000000
O    -0.850000000     2.228000000     3.238000000
H    -0.111000000     2.449000000     3.804000000
H    -1.103000000     3.061000000     2.839000000
O    -2.420000000    -5.404000000    -3.880000000
H    -2.870000000    -6.164000000    -3.509000000
H    -2.796000000    -4.655000000    -3.417000000
O     3.911000000    -2.456000000     2.427000000
H     4.521000000    -1.730000000     2.298000000
H     3.126000000    -2.048000000     2.794000000
O     0.031000000     5.294000000    -1.330000000
H     0.662000000     5.428000000    -2.037000000
H    -0.543000000     6.059000000    -1.372000000
O    -5.672000000     1.720000000    -4.015000000
H    -5.510000000     2.237000000    -3.226000000
H    -4.822000000     1.335000000    -4.228000000
O     2.135000000     0.412000000     7.674000000
H     2.054000000    -0.381000000     7.144000000
H     2.894000000     0.867000000     7.309000000
O     4.143000000    -3.632000000    -0.261000000
H     4.105000000    -3.356000000     0.654000000
H     3.421000000    -4.254000000    -0.354000000
O    -3.525000000    -1.554000000    -3.364000000
H    -4.466000000    -1.658000000    -3.223000000
H    -3.385000000    -0.607000000    -3.359000000
O    -1.895000000     3.592000000    -2.800000000
H    -1.341000000     4.063000000    -3.423000000
H    -1.678000000     3.975000000    -1.950000000
O     3.976000000    -2.816000000    -2.808000000
H     3.141000000    -3.278000000    -2.742000000
H     4.328000000    -2.829000000    -1.918000000
O     4.698000000    -5.084000000     2.290000000
H     4.308000000    -5.616000000     2.983000000
H     4.512000000    -4.181000000     2.547000000
O    -3.807000000     4.872000000     0.436000000
H    -2.952000000     4.916000000     0.864000000
H    -4.437000000     4.990000000     1.147000000
O     3.711000000     1.289000000     5.389000000
H     3.337000000     0.976000000     4.566000000
H     4.408000000     1.888000000     5.123000000
O     5.604000000    -0.407000000     2.990000000
H     4.835000000     0.159000000     3.064000000
H     5.964000000    -0.439000000     3.876000000
O     2.779000000     0.572000000    -1.582000000
H     2.043000000     0.592000000    -0.970000000
H     2.523000000    -0.071000000    -2.243000000
O    -5.080000000     2.118000000     1.858000000
H    -4.982000000     2.705000000     2.608000000
H    -4.299000000     1.564000000     1.884000000
O    -1.864000000     4.674000000     2.808000000
H    -1.137000000     5.293000000     2.740000000
H    -2.460000000     5.073000000     3.443000000
O    -1.999000000    -1.721000000    -6.055000000
H    -2.436000000    -1.319000000    -5.304000000
H    -2.493000000    -2.525000000    -6.217000000
O     4.503000000     2.366000000    -3.938000000
H     4.585000000     1.757000000    -4.672000000
H     3.616000000     2.226000000    -3.608000000
O     0.007000000     1.165000000    -4.158000000
H     0.473000000     1.190000000    -4.994000000
H     0.150000000     2.031000000    -3.777000000
O     2.129000000    -5.713000000    -0.535000000
H     2.356000000    -6.586000000    -0.214000000
H     1.861000000    -5.854000000    -1.443000000
O    -6.559000000    -0.828000000    -3.626000000
H    -6.475000000    -0.011000000    -4.118000000
H    -7.273000000    -0.665000000    -3.010000000
O     1.515000000    -1.186000000    -3.157000000
H     1.149000000    -2.020000000    -3.452000000
H     0.752000000    -0.665000000    -2.906000000
O    -3.096000000     1.270000000    -4.200000000
H    -2.369000000     1.125000000    -4.805000000
H    -2.810000000     2.000000000    -3.651000000
O    -1.314000000    -5.445000000    -0.286000000
H    -0.665000000    -5.426000000    -0.990000000
H    -2.097000000    -5.815000000    -0.693000000
O     5.462000000    -0.542000000    -1.819000000
H     4.663000000    -0.135000000    -1.484000000
H     5.213000000    -0.890000000    -2.675000000
O     0.855000000    -3.724000000    -4.067000000
H     1.165000000    -4.619000000    -3.929000000
H     0.238000000    -3.795000000    -4.795000000
O    -2.086000000    -2.294000000     5.847000000
H    -1.866000000    -2.666000000     4.993000000
H    -2.221000000    -1.362000000     5.675000000
O     6.289000000     3.577000000     1.845000000
H     5.685000000     2.976000000     1.410000000
H     6.957000000     3.766000000     1.186000000
O    -4.209000000     5.323000000    -2.241000000
H    -4.152000000     5.142000000    -1.302000000
H    -3.536000000     4.768000000    -2.633000000
O     2.038000000    -3.278000000     7.905000000
H     2.121000000    -2.804000000     7.078000000
H     1.140000000    -3.109000000     8.189000000
O     0.667000000     5.283000000     5.133000000
H     0.985000000     4.479000000     4.722000000
H     0.986000000     5.234000000     6.034000000
O     0.207000000    -5.133000000     1.923000000
H    -0.328000000    -5.243000000     1.137000000
H     1.104000000    -5.067000000     1.596000000
O    -0.251000000    -3.273000000     3.728000000
H     0.550000000    -2.752000000     3.665000000
H    -0.142000000    -3.961000000     3.072000000
O    -5.428000000     2.308000000    -1.248000000
H    -6.071000000     3.011000000    -1.157000000
H    -5.051000000     2.213000000    -0.374000000
O    -1.527000000     0.407000000    -7.816000000
H    -1.873000000    -0.468000000    -7.638000000
H    -1.027000000     0.630000000    -7.031000000
O    -2.998000000    -4.240000000     2.430000000
H    -2.101000000    -4.391000000     2.133000000
H    -3.454000000    -3.906000000     1.658000000
O    -2.731000000     0.698000000     2.296000000
H    -2.306000000     1.354000000     2.848000000
H    -2.240000000     0.723000000     1.474000000
O     2.246000000     5.087000000    -3.061000000
H     2.527000000     4.729000000    -2.219000000
H     3.022000000     5.532000000    -3.402000000
O     1.581000000     2.831000000     4.308000000
H     1.781000000     2.166000000     3.648000000
H     2.046000000     2.539000000     5.091000000
O    -0.066000000     4.415000000    -4.427000000
H    -0.026000000     5.012000000    -5.174000000
H     0.796000000     4.485000000    -4.017000000
O     1.322000000     1.127000000    -6.714000000
H     1.288000000     0.604000000    -7.515000000
H     2.127000000     1.637000000    -6.795000000
O    -3.885000000    -2.752000000    -0.027000000
H    -3.586000000    -1.844000000    -0.060000000
H    -4.828000000    -2.700000000    -0.183000000
O     4.212000000     1.898000000     0.618000000
H     4.076000000     1.609000000    -0.284000000
H     3.425000000     1.613000000     1.082000000
O     3.605000000     4.818000000    -0.537000000
H     4.398000000     5.120000000    -0.094000000
H     3.077000000     4.426000000     0.158000000
O    -4.439000000    -4.483000000    -2.077000000
H    -4.068000000    -3.950000000    -1.373000000
H    -5.029000000    -3.889000000    -2.541000000
