158
-3045.25196
C    -1.182000000     0.834000000     0.098000000
H    -2.140000000     1.346000000     0.068000000
C    -0.815000000     0.231000000    -1.062000000
H    -1.396000000     0.500000000    -1.940000000
C     0.338000000    -0.504000000    -1.053000000
H     0.665000000    -0.914000000    -2.009000000
C     0.994000000    -0.769000000     0.152000000
H     1.808000000    -1.490000000     0.132000000
C     0.695000000    -0.061000000     1.264000000
H     1.222000000    -0.266000000     2.192000000
C    -0.446000000     0.754000000     1.295000000
C    -0.846000000     1.508000000     2.530000000
O    -1.258000000     2.664000000     2.470000000
O    -0.867000000     0.868000000     3.579000000
O    -0.721000000    -4.632000000    -3.152000000
H    -0.027000000    -5.225000000    -2.865000000
H    -0.337000000    -3.759000000    -3.075000000
O     3.897000000    -4.304000000     0.053000000
H     4.514000000    -4.429000000     0.774000000
H     4.037000000    -3.399000000    -0.228000000
O     0.506000000     2.443000000     6.512000000
H     1.027000000     2.816000000     5.801000000
H    -0.095000000     1.838000000     6.077000000
O     4.655000000     0.816000000    -0.826000000
H     4.885000000     0.936000000    -1.747000000
H     3.708000000     0.952000000    -0.796000000
O     1.506000000    -3.461000000    -5.775000000
H     1.718000000    -4.105000000    -6.452000000
H     1.906000000    -3.810000000    -4.979000000
O    -1.618000000     4.045000000    -5.409000000
H    -1.062000000     4.488000000    -6.050000000
H    -1.039000000     3.410000000    -4.988000000
O    -1.881000000     0.495000000     5.794000000
H    -1.489000000    -0.310000000     6.134000000
H    -1.566000000     0.552000000     4.892000000
O     2.355000000    -3.747000000    -3.054000000
H     2.136000000    -4.467000000    -2.463000000
H     3.254000000    -3.928000000    -3.329000000
O     2.238000000     2.084000000    -0.721000000
H     1.463000000     1.759000000    -0.262000000
H     2.198000000     3.034000000    -0.616000000
O    -5.724000000     1.466000000    -0.858000000
H    -5.555000000     0.648000000    -1.325000000
H    -5.174000000     1.413000000    -0.076000000
O    -2.134000000     0.582000000    -4.407000000
H    -1.630000000    -0.174000000    -4.709000000
H    -1.625000000     1.339000000    -4.694000000
O    -0.413000000    -1.724000000     3.891000000
H    -0.340000000    -0.782000000     3.737000000
H    -0.873000000    -1.794000000     4.728000000
O     3.304000000     0.914000000     4.485000000
H     3.161000000    -0.028000000     4.573000000
H     3.597000000     1.028000000     3.580000000
O    -1.209000000    -5.733000000    -6.216000000
H    -0.728000000    -5.006000000    -5.821000000
H    -2.130000000    -5.524000000    -6.059000000
O     4.687000000    -1.778000000    -0.229000000
H     5.174000000    -1.705000000    -1.050000000
H     4.550000000    -0.873000000     0.049000000
O    -3.568000000    -0.273000000     3.236000000
H    -2.686000000     0.082000000     3.349000000
H    -3.427000000    -1.180000000     2.964000000
O     0.158000000    -1.383000000    -4.552000000
H     0.682000000    -0.699000000    -4.970000000
H     0.511000000    -2.202000000    -4.900000000
O    -4.130000000     2.025000000     1.352000000
H    -4.276000000     1.498000000     2.138000000
H    -3.224000000     2.325000000     1.430000000
O    -2.594000000     4.791000000     1.549000000
H    -2.402000000     4.918000000     0.620000000
H    -2.028000000     4.066000000     1.814000000
O    -0.356000000    -3.796000000     2.189000000
H    -0.937000000    -4.397000000     2.653000000
H    -0.290000000    -3.034000000     2.764000000
O    -1.298000000    -2.874000000    -0.144000000
H    -1.025000000    -2.003000000    -0.432000000
H    -1.187000000    -2.857000000     0.807000000
O    -4.059000000    -0.528000000    -1.899000000
H    -3.872000000    -1.233000000    -2.519000000
H    -3.696000000     0.256000000    -2.311000000
O     2.467000000    -1.781000000     4.311000000
H     2.900000000    -2.517000000     3.878000000
H     1.557000000    -2.062000000     4.409000000
O    -1.712000000     6.058000000     3.900000000
H    -1.818000000     5.172000000     4.245000000
H    -1.775000000     5.955000000     2.950000000
O     5.366000000     0.722000000    -3.479000000
H     5.450000000     1.387000000    -4.162000000
H     6.065000000     0.096000000    -3.668000000
O     2.677000000     1.162000000    -3.342000000
H     3.620000000     0.998000000    -3.328000000
H     2.485000000     1.530000000    -2.480000000
O    -2.379000000    -5.153000000    -1.344000000
H    -1.762000000    -4.931000000    -2.041000000
H    -2.303000000    -4.434000000    -0.718000000
O    -5.108000000    -2.185000000     0.120000000
H    -4.518000000    -2.369000000     0.851000000
H    -4.536000000    -1.849000000    -0.571000000
O     2.423000000     3.624000000     4.459000000
H     3.205000000     4.078000000     4.145000000
H     2.632000000     2.695000000     4.367000000
O     1.814000000     0.284000000    -5.930000000
H     2.419000000     0.466000000    -6.649000000
H     2.262000000     0.615000000    -5.151000000
O     1.297000000     7.006000000     1.779000000
H     0.589000000     7.187000000     1.161000000
H     1.012000000     6.220000000     2.246000000
O    -3.825000000    -3.144000000    -3.405000000
H    -4.655000000    -3.451000000    -3.038000000
H    -3.196000000    -3.830000000    -3.183000000
O     1.277000000    -6.239000000    -2.256000000
H     1.810000000    -6.895000000    -2.706000000
H     1.000000000    -6.669000000    -1.447000000
O    -0.846000000    -1.847000000     6.656000000
H    -1.574000000    -2.252000000     7.127000000
H    -0.191000000    -2.542000000     6.587000000
O    -5.766000000     0.235000000     4.926000000
H    -5.163000000    -0.079000000     4.253000000
H    -6.277000000     0.918000000     4.490000000
O    -2.310000000    -2.526000000    -5.789000000
H    -2.721000000    -2.416000000    -4.932000000
H    -1.511000000    -2.001000000    -5.741000000
O     1.522000000     4.544000000    -0.285000000
H     1.675000000     5.399000000    -0.687000000
H     1.576000000     4.708000000     0.657000000
O    -2.840000000     3.541000000     4.581000000
H    -2.455000000     2.952000000     3.932000000
H    -2.899000000     3.014000000     5.378000000
O     3.974000000    -2.166000000     6.605000000
H     3.741000000    -1.480000000     7.230000000
H     3.374000000    -2.035000000     5.871000000
O    -5.367000000     4.410000000    -0.642000000
H    -5.454000000     4.706000000    -1.549000000
H    -5.121000000     3.488000000    -0.714000000
O    -1.381000000     4.763000000    -0.819000000
H    -0.459000000     4.536000000    -0.694000000
H    -1.483000000     4.835000000    -1.768000000
O    -4.851000000     4.839000000     3.197000000
H    -4.619000000     4.860000000     2.269000000
H    -4.162000000     4.314000000     3.605000000
O    -5.042000000     0.950000000    -4.336000000
H    -4.145000000     1.268000000    -4.431000000
H    -5.588000000     1.679000000    -4.630000000
O     3.887000000     1.881000000     1.756000000
H     3.143000000     1.896000000     1.154000000
H     4.646000000     2.067000000     1.203000000
O     0.064000000     2.489000000    -4.087000000
H     0.311000000     3.191000000    -3.484000000
H     0.720000000     1.808000000    -3.943000000
O     1.252000000    -5.083000000     0.352000000
H     0.656000000    -4.335000000     0.316000000
H     2.089000000    -4.738000000     0.043000000
O     0.722000000     4.441000000     2.307000000
H    -0.082000000     3.925000000     2.258000000
H     1.168000000     4.117000000     3.090000000
O    -4.283000000     0.852000000     7.052000000
H    -4.945000000     0.548000000     6.430000000
H    -3.448000000     0.621000000     6.646000000
