158
-3056.58212
C    -0.436000000     1.264000000     0.688000000
H    -0.681000000     2.279000000     0.989000000
C    -0.165000000     1.086000000    -0.654000000
H    -0.086000000     1.928000000    -1.336000000
C     0.309000000    -0.147000000    -1.197000000
H     0.517000000    -0.196000000    -2.233000000
C     0.375000000    -1.222000000    -0.339000000
H     0.676000000    -2.183000000    -0.747000000
C    -0.005000000    -1.062000000     1.008000000
H    -0.014000000    -1.981000000     1.588000000
C    -0.443000000     0.173000000     1.553000000
C    -0.586000000     0.335000000     3.054000000
O    -1.186000000     1.348000000     3.527000000
O    -0.242000000    -0.518000000     3.835000000
O     3.528000000    -3.664000000     1.829000000
H     4.292000000    -3.630000000     2.405000000
H     3.606000000    -2.882000000     1.282000000
O     2.346000000     2.444000000     5.694000000
H     3.260000000     2.162000000     5.649000000
H     1.850000000     1.633000000     5.808000000
O    -0.675000000    -6.826000000     2.077000000
H    -0.026000000    -6.172000000     2.336000000
H    -0.347000000    -7.175000000     1.248000000
O     2.741000000     0.817000000     0.458000000
H     1.830000000     0.624000000     0.238000000
H     2.844000000     0.499000000     1.355000000
O     0.947000000     3.968000000    -6.061000000
H     1.172000000     3.846000000    -5.138000000
H     0.074000000     3.586000000    -6.147000000
O    -1.196000000    -3.868000000    -3.190000000
H    -0.340000000    -4.290000000    -3.255000000
H    -1.504000000    -4.086000000    -2.310000000
O     0.846000000     0.192000000     6.094000000
H     0.778000000    -0.436000000     6.813000000
H     0.376000000    -0.222000000     5.370000000
O     1.261000000    -5.186000000    -2.704000000
H     1.942000000    -5.806000000    -2.442000000
H     1.667000000    -4.326000000    -2.601000000
O     3.147000000     3.115000000    -1.030000000
H     2.688000000     2.394000000    -0.600000000
H     2.868000000     3.896000000    -0.552000000
O    -3.237000000     5.109000000     1.275000000
H    -3.666000000     4.282000000     1.053000000
H    -2.302000000     4.922000000     1.197000000
O    -2.331000000     1.029000000    -3.889000000
H    -1.737000000     1.705000000    -4.214000000
H    -1.859000000     0.208000000    -4.027000000
O    -0.400000000    -3.200000000     4.512000000
H    -0.236000000    -2.273000000     4.336000000
H    -1.347000000    -3.256000000     4.639000000
O     2.674000000     0.270000000     3.133000000
H     1.965000000     0.673000000     3.635000000
H     2.763000000    -0.606000000     3.507000000
O     4.399000000    -1.443000000     0.213000000
H     4.588000000    -1.367000000    -0.723000000
H     4.327000000    -0.538000000     0.517000000
O    -0.361000000     6.746000000    -2.085000000
H    -0.532000000     7.573000000    -2.535000000
H    -1.031000000     6.150000000    -2.417000000
O    -2.635000000    -0.142000000     5.489000000
H    -1.973000000     0.018000000     4.816000000
H    -2.144000000    -0.144000000     6.311000000
O    -4.842000000    -2.306000000    -1.788000000
H    -5.367000000    -1.510000000    -1.699000000
H    -4.185000000    -2.238000000    -1.095000000
O    -0.161000000    -0.917000000    -4.370000000
H     0.629000000    -0.387000000    -4.267000000
H    -0.060000000    -1.624000000    -3.732000000
O    -3.620000000     2.167000000     3.679000000
H    -3.323000000     2.730000000     2.964000000
H    -2.853000000     1.638000000     3.901000000
O    -3.138000000     5.804000000     6.197000000
H    -2.489000000     5.142000000     5.961000000
H    -2.626000000     6.600000000     6.341000000
O    -3.401000000    -2.454000000     4.008000000
H    -3.255000000    -1.520000000     4.157000000
H    -4.328000000    -2.517000000     3.775000000
O    -3.000000000    -1.598000000     0.321000000
H    -2.225000000    -1.084000000     0.095000000
H    -3.485000000    -1.042000000     0.931000000
O    -4.073000000     2.868000000     0.119000000
H    -4.146000000     2.121000000     0.713000000
H    -4.306000000     2.516000000    -0.740000000
O     2.807000000    -2.171000000     4.508000000
H     3.585000000    -2.720000000     4.610000000
H     2.073000000    -2.781000000     4.581000000
O     0.190000000     4.991000000     6.671000000
H     0.012000000     4.969000000     7.611000000
H    -0.226000000     4.199000000     6.330000000
O     4.995000000    -1.444000000    -2.829000000
H     4.791000000    -0.577000000    -3.179000000
H     5.948000000    -1.511000000    -2.895000000
O     4.576000000     1.458000000    -3.201000000
H     4.974000000     2.150000000    -3.729000000
H     4.307000000     1.897000000    -2.394000000
O    -1.896000000    -4.287000000    -0.404000000
H    -1.239000000    -4.558000000     0.237000000
H    -2.327000000    -3.533000000    -0.001000000
O    -4.854000000     0.053000000     2.029000000
H    -5.747000000     0.262000000     1.755000000
H    -4.769000000     0.454000000     2.894000000
O     1.982000000     0.724000000    -4.429000000
H     1.639000000     1.571000000    -4.145000000
H     2.872000000     0.696000000    -4.079000000
O     0.310000000    -2.212000000     7.729000000
H     1.070000000    -2.791000000     7.670000000
H    -0.443000000    -2.794000000     7.622000000
O    -4.437000000    -4.877000000     2.124000000
H    -3.532000000    -4.919000000     2.432000000
H    -4.371000000    -4.973000000     1.174000000
O    -5.401000000     0.314000000     5.461000000
H    -4.585000000    -0.121000000     5.709000000
H    -5.123000000     1.156000000     5.101000000
O    -3.618000000    -2.593000000    -4.312000000
H    -2.721000000    -2.896000000    -4.169000000
H    -3.997000000    -2.544000000    -3.434000000
O    -0.927000000    -0.072000000    -6.892000000
H    -1.718000000    -0.610000000    -6.879000000
H    -0.470000000    -0.299000000    -6.081000000
O     2.245000000     5.146000000     0.446000000
H     2.099000000     5.746000000     1.177000000
H     2.770000000     5.649000000    -0.176000000
O    -0.185000000     7.686000000     1.154000000
H     0.557000000     8.168000000     0.788000000
H    -0.495000000     7.138000000     0.433000000
O    -2.341000000     5.194000000    -2.935000000
H    -3.071000000     5.735000000    -3.234000000
H    -2.745000000     4.364000000    -2.683000000
O    -0.861000000     2.796000000     5.654000000
H    -1.190000000     2.554000000     4.788000000
H    -0.166000000     2.163000000     5.832000000
O    -0.431000000     4.691000000     1.323000000
H     0.041000000     4.275000000     2.044000000
H     0.185000000     4.673000000     0.591000000
O     3.089000000    -3.292000000    -2.250000000
H     3.838000000    -2.760000000    -2.520000000
H     3.279000000    -3.529000000    -1.342000000
O    -4.424000000     1.776000000    -2.388000000
H    -3.593000000     1.346000000    -2.589000000
H    -4.563000000     2.382000000    -3.116000000
O    -0.647000000    -5.339000000     6.475000000
H    -0.111000000    -6.079000000     6.760000000
H    -0.014000000    -4.671000000     6.213000000
O    -1.414000000     2.826000000    -6.079000000
H    -2.292000000     3.089000000    -6.355000000
H    -1.321000000     1.928000000    -6.399000000
O     1.936000000     3.429000000    -3.581000000
H     2.417000000     3.090000000    -2.827000000
H     1.816000000     4.359000000    -3.391000000
O     1.021000000    -4.569000000     2.180000000
H     0.592000000    -4.083000000     2.884000000
H     1.831000000    -4.086000000     2.015000000
O     2.143000000    -1.123000000    -6.729000000
H     1.856000000    -0.658000000    -5.943000000
H     1.429000000    -1.731000000    -6.921000000
O     0.939000000     4.205000000     3.785000000
H     1.750000000     3.901000000     4.193000000
H     0.299000000     4.207000000     4.496000000
