158
-3038.36569
C    -0.715000000     1.265000000    -0.041000000
H    -1.327000000     2.152000000    -0.187000000
C    -0.204000000     0.565000000    -1.153000000
H    -0.302000000     1.013000000    -2.138000000
C     0.517000000    -0.607000000    -0.958000000
H     0.978000000    -1.082000000    -1.835000000
C     0.606000000    -1.133000000     0.333000000
H     1.169000000    -2.050000000     0.486000000
C     0.137000000    -0.420000000     1.435000000
H     0.267000000    -0.802000000     2.444000000
C    -0.695000000     0.666000000     1.233000000
C    -1.267000000     1.344000000     2.401000000
O    -1.788000000     2.450000000     2.334000000
O    -1.250000000     0.758000000     3.489000000
O    -0.976000000    -0.710000000     8.349000000
H    -0.908000000    -1.051000000     7.457000000
H    -1.220000000    -1.469000000     8.878000000
O    -3.513000000    -1.879000000     6.355000000
H    -2.796000000    -1.333000000     6.034000000
H    -3.421000000    -2.702000000     5.874000000
O    -2.820000000    -1.403000000     3.303000000
H    -3.714000000    -1.059000000     3.300000000
H    -2.267000000    -0.629000000     3.406000000
O     3.566000000    -1.618000000    -3.114000000
H     3.076000000    -2.126000000    -2.468000000
H     3.214000000    -1.899000000    -3.959000000
O    -5.999000000     1.614000000    -2.509000000
H    -6.645000000     2.318000000    -2.567000000
H    -5.460000000     1.844000000    -1.753000000
O    -2.186000000     2.971000000     4.965000000
H    -1.874000000     2.480000000     4.205000000
H    -2.441000000     2.298000000     5.596000000
O    -0.341000000     5.700000000    -4.368000000
H    -0.536000000     6.107000000    -5.212000000
H    -0.050000000     4.816000000    -4.590000000
O    -0.774000000    -4.023000000     0.534000000
H    -1.028000000    -4.873000000     0.173000000
H    -0.930000000    -3.404000000    -0.179000000
O    -2.839000000     4.112000000    -1.832000000
H    -2.706000000     3.609000000    -2.636000000
H    -3.543000000     3.651000000    -1.375000000
O     1.081000000    -4.036000000    -3.246000000
H     0.313000000    -3.920000000    -2.686000000
H     0.987000000    -3.367000000    -3.924000000
O    -2.957000000     0.786000000     6.900000000
H    -2.225000000     0.316000000     7.299000000
H    -3.715000000     0.546000000     7.432000000
O    -0.248000000     4.921000000     2.010000000
H    -0.983000000     5.382000000     1.606000000
H    -0.568000000     4.029000000     2.140000000
O     4.071000000     1.517000000     4.305000000
H     4.092000000     2.444000000     4.542000000
H     3.189000000     1.377000000     3.961000000
O    -0.473000000     3.866000000     7.253000000
H     0.268000000     3.281000000     7.409000000
H    -0.896000000     3.514000000     6.470000000
O     1.989000000    -1.996000000     4.239000000
H     2.245000000    -2.146000000     5.149000000
H     1.208000000    -2.535000000     4.118000000
O    -4.199000000     3.171000000     2.485000000
H    -4.228000000     3.878000000     3.129000000
H    -3.269000000     2.956000000     2.407000000
O    -0.546000000    -3.039000000     3.190000000
H    -1.320000000    -2.477000000     3.225000000
H    -0.657000000    -3.550000000     2.389000000
O    -7.078000000     2.038000000     2.824000000
H    -7.623000000     2.815000000     2.699000000
H    -6.180000000     2.362000000     2.755000000
O    -0.310000000     0.705000000    -6.329000000
H    -1.198000000     0.794000000    -6.674000000
H     0.219000000     0.458000000    -7.087000000
O    -2.534000000     2.051000000    -3.591000000
H    -3.453000000     2.009000000    -3.854000000
H    -2.086000000     1.449000000    -4.186000000
O    -3.888000000     0.004000000     0.312000000
H    -2.999000000    -0.299000000     0.129000000
H    -4.317000000    -0.748000000     0.721000000
O     2.829000000     3.053000000    -2.337000000
H     3.133000000     3.647000000    -1.651000000
H     2.165000000     3.554000000    -2.810000000
O    -4.548000000     2.679000000    -0.059000000
H    -4.198000000     1.800000000     0.086000000
H    -4.715000000     3.019000000     0.820000000
O     1.631000000     0.684000000     3.930000000
H     1.748000000    -0.261000000     3.840000000
H     0.682000000     0.805000000     3.968000000
O     0.287000000    -1.710000000    -4.655000000
H    -0.635000000    -1.522000000    -4.482000000
H     0.634000000    -0.895000000    -5.018000000
O     5.246000000    -0.063000000    -4.879000000
H     5.997000000    -0.592000000    -4.613000000
H     4.514000000    -0.412000000    -4.370000000
O    -2.673000000     5.591000000     4.966000000
H    -2.443000000     4.666000000     5.055000000
H    -2.865000000     5.702000000     4.035000000
O     3.873000000    -4.047000000    -1.020000000
H     3.333000000    -4.787000000    -0.743000000
H     3.691000000    -3.364000000    -0.374000000
O     2.662000000     0.269000000     6.487000000
H     1.750000000     0.439000000     6.722000000
H     2.762000000     0.658000000     5.618000000
O    -0.847000000    -1.159000000     5.624000000
H    -1.011000000    -0.580000000     4.881000000
H    -0.179000000    -1.768000000     5.310000000
O     4.388000000    -1.360000000    -0.162000000
H     4.689000000    -1.418000000    -1.069000000
H     3.855000000    -0.566000000    -0.137000000
O    -1.410000000    -3.339000000    -1.967000000
H    -1.543000000    -2.718000000    -2.683000000
H    -1.654000000    -4.187000000    -2.338000000
O     2.642000000     1.111000000    -0.205000000
H     2.571000000     1.355000000    -1.128000000
H     1.880000000     0.555000000    -0.044000000
O    -4.758000000     1.171000000     4.799000000
H    -4.261000000     1.936000000     4.509000000
H    -4.362000000     0.931000000     5.636000000
O    -5.573000000    -0.790000000     2.983000000
H    -5.474000000    -0.068000000     3.603000000
H    -6.519000000    -0.879000000     2.867000000
O     1.108000000     3.270000000    -4.688000000
H     0.728000000     2.641000000    -5.302000000
H     1.964000000     3.481000000    -5.060000000
O    -3.248000000     6.033000000     2.090000000
H    -4.090000000     5.986000000     1.637000000
H    -2.638000000     6.360000000     1.429000000
O     3.630000000    -5.212000000    -3.411000000
H     2.779000000    -4.774000000    -3.377000000
H     4.109000000    -4.863000000    -2.660000000
O     5.255000000     2.376000000    -3.389000000
H     4.323000000     2.457000000    -3.190000000
H     5.317000000     1.590000000    -3.933000000
O     2.298000000     5.506000000     0.769000000
H     3.010000000     5.005000000     1.168000000
H     1.502000000     5.141000000     1.156000000
O     3.143000000    -2.047000000    -5.804000000
H     2.528000000    -1.657000000    -6.425000000
H     3.852000000    -2.387000000    -6.350000000
O    -1.541000000     6.656000000    -0.530000000
H    -1.948000000     5.909000000    -0.970000000
H    -0.808000000     6.897000000    -1.095000000
O    -2.027000000    -5.089000000    -3.870000000
H    -2.572000000    -5.871000000    -3.786000000
H    -2.504000000    -4.528000000    -4.481000000
O     5.705000000    -2.859000000    -4.101000000
H     5.328000000    -3.365000000    -4.821000000
H     4.967000000    -2.689000000    -3.515000000
O    -2.351000000    -1.243000000    -4.243000000
H    -3.139000000    -0.884000000    -3.834000000
H    -2.560000000    -1.272000000    -5.177000000
O     4.106000000     3.196000000     1.227000000
H     4.647000000     2.539000000     1.665000000
H     3.444000000     2.687000000     0.759000000
O     1.487000000    -5.468000000     0.718000000
H     1.130000000    -5.784000000     1.548000000
H     0.889000000    -4.769000000     0.452000000
O     4.621000000    -2.036000000     3.338000000
H     4.579000000    -2.981000000     3.192000000
H     3.730000000    -1.792000000     3.590000000
