158
-3049.08370
C    -0.363000000     1.395000000    -0.065000000
H    -0.778000000     2.363000000    -0.334000000
C    -0.066000000     0.533000000    -1.183000000
H     0.033000000     0.963000000    -2.176000000
C     0.352000000    -0.742000000    -0.894000000
H     0.627000000    -1.439000000    -1.710000000
C     0.344000000    -1.199000000     0.383000000
H     0.602000000    -2.238000000     0.567000000
C    -0.095000000    -0.435000000     1.448000000
H     0.038000000    -0.728000000     2.487000000
C    -0.494000000     0.896000000     1.241000000
C    -0.803000000     1.862000000     2.360000000
O    -1.052000000     3.036000000     2.136000000
O    -0.844000000     1.399000000     3.514000000
O     3.626000000     4.201000000     1.490000000
H     4.049000000     4.835000000     0.910000000
H     3.435000000     4.696000000     2.287000000
O    -1.409000000    -4.671000000    -3.696000000
H    -1.377000000    -3.857000000    -4.199000000
H    -0.618000000    -4.649000000    -3.156000000
O     2.289000000    -1.761000000     3.760000000
H     2.366000000    -2.711000000     3.671000000
H     1.352000000    -1.587000000     3.673000000
O    -1.601000000    -1.224000000    -3.400000000
H    -0.794000000    -1.116000000    -2.896000000
H    -2.234000000    -1.566000000    -2.770000000
O     5.117000000    -4.603000000    -3.991000000
H     5.000000000    -3.790000000    -3.501000000
H     5.825000000    -5.058000000    -3.535000000
O    -2.668000000    -1.261000000    -6.383000000
H    -1.927000000    -0.668000000    -6.506000000
H    -2.924000000    -1.137000000    -5.469000000
O    -0.437000000     2.483000000     7.614000000
H     0.017000000     3.275000000     7.905000000
H    -1.008000000     2.252000000     8.347000000
O     3.472000000     0.796000000     0.657000000
H     3.721000000     1.080000000    -0.223000000
H     2.531000000     0.965000000     0.706000000
O    -3.626000000     1.260000000    -1.061000000
H    -3.354000000     0.348000000    -0.958000000
H    -3.190000000     1.722000000    -0.346000000
O     0.990000000    -3.412000000    -4.133000000
H     1.438000000    -4.070000000    -4.664000000
H     0.714000000    -2.745000000    -4.762000000
O    -0.675000000    -1.468000000     6.774000000
H    -0.219000000    -0.714000000     6.400000000
H    -1.518000000    -1.119000000     7.063000000
O    -4.750000000     1.634000000     6.064000000
H    -4.037000000     2.130000000     5.661000000
H    -4.311000000     0.927000000     6.538000000
O     2.978000000     2.634000000     5.160000000
H     3.708000000     3.040000000     5.626000000
H     3.393000000     2.120000000     4.467000000
O     4.527000000    -3.735000000     1.563000000
H     3.697000000    -3.882000000     2.017000000
H     5.192000000    -3.829000000     2.244000000
O    -2.454000000    -5.811000000    -0.515000000
H    -1.767000000    -5.151000000    -0.413000000
H    -2.000000000    -6.576000000    -0.869000000
O     3.763000000     0.416000000     3.470000000
H     3.637000000     0.504000000     2.526000000
H     3.268000000    -0.369000000     3.706000000
O    -2.295000000     2.692000000     5.665000000
H    -1.717000000     2.578000000     6.419000000
H    -1.811000000     2.312000000     4.932000000
O     1.272000000    -1.229000000    -6.319000000
H     2.158000000    -1.588000000    -6.267000000
H     1.132000000    -1.071000000    -7.252000000
O    -3.683000000     3.853000000     2.273000000
H    -3.579000000     4.660000000     2.777000000
H    -2.795000000     3.505000000     2.190000000
O    -4.038000000     4.932000000     5.413000000
H    -3.876000000     5.424000000     6.218000000
H    -3.406000000     4.214000000     5.438000000
O    -0.791000000    -4.064000000     2.776000000
H    -1.105000000    -3.173000000     2.926000000
H    -1.467000000    -4.625000000     3.156000000
O    -3.491000000    -2.023000000    -1.753000000
H    -3.309000000    -1.983000000    -0.815000000
H    -4.421000000    -2.244000000    -1.808000000
O    -6.075000000     3.860000000     1.222000000
H    -5.177000000     3.710000000     1.517000000
H    -6.375000000     4.608000000     1.740000000
O    -2.344000000     1.834000000    -3.839000000
H    -2.972000000     2.173000000    -4.476000000
H    -2.458000000     0.884000000    -3.871000000
O     2.474000000     6.086000000     3.578000000
H     2.150000000     6.822000000     4.097000000
H     1.964000000     5.335000000     3.882000000
O    -0.392000000     1.080000000    -6.480000000
H     0.185000000     1.523000000    -7.102000000
H     0.199000000     0.721000000    -5.819000000
O     2.932000000     1.489000000    -4.442000000
H     2.082000000     1.927000000    -4.497000000
H     3.562000000     2.154000000    -4.719000000
O    -3.509000000    -1.432000000     0.772000000
H    -2.832000000    -1.158000000     1.391000000
H    -4.287000000    -1.567000000     1.313000000
O     0.693000000     0.285000000     5.230000000
H     1.424000000     0.812000000     5.553000000
H     0.213000000     0.873000000     4.648000000
O     3.797000000    -1.270000000    -4.997000000
H     3.279000000    -0.492000000    -4.792000000
H     4.006000000    -1.651000000    -4.144000000
O     1.966000000     1.103000000     7.925000000
H     1.542000000     0.261000000     8.090000000
H     1.242000000     1.722000000     7.836000000
O    -2.332000000    -0.678000000     4.278000000
H    -1.865000000     0.144000000     4.127000000
H    -2.058000000    -0.951000000     5.153000000
O    -5.860000000     3.109000000    -1.505000000
H    -5.073000000     2.564000000    -1.524000000
H    -5.792000000     3.600000000    -0.686000000
O     0.570000000    -5.684000000    -1.169000000
H     0.966000000    -6.152000000    -0.434000000
H     1.311000000    -5.290000000    -1.630000000
O     0.346000000     2.805000000    -4.358000000
H    -0.528000000     2.439000000    -4.495000000
H     0.240000000     3.410000000    -3.624000000
O     0.877000000     4.187000000     4.276000000
H     0.069000000     3.795000000     3.943000000
H     1.424000000     3.439000000     4.518000000
O     1.934000000    -6.719000000     1.352000000
H     1.682000000    -7.636000000     1.249000000
H     2.889000000    -6.739000000     1.417000000
O    -2.560000000     5.894000000     0.038000000
H    -2.522000000     5.336000000    -0.740000000
H    -3.317000000     5.572000000     0.527000000
O    -0.035000000     7.174000000     0.203000000
H    -0.978000000     7.051000000     0.102000000
H     0.307000000     6.293000000     0.355000000
O     4.201000000     1.475000000    -1.881000000
H     3.914000000     1.339000000    -2.784000000
H     4.511000000     2.380000000    -1.862000000
O     5.130000000    -1.726000000    -0.129000000
H     5.186000000    -2.532000000     0.385000000
H     4.488000000    -1.190000000     0.337000000
O     4.530000000    -2.296000000    -2.814000000
H     5.080000000    -1.829000000    -2.185000000
H     3.775000000    -2.587000000    -2.302000000
O    -2.468000000     4.539000000    -2.751000000
H    -1.585000000     4.495000000    -2.382000000
H    -2.673000000     3.635000000    -2.989000000
O    -0.149000000    -4.057000000     5.900000000
H    -1.090000000    -4.215000000     5.970000000
H    -0.057000000    -3.109000000     5.996000000
O     3.009000000    -4.809000000    -1.435000000
H     3.028000000    -4.229000000    -0.674000000
H     3.931000000    -4.976000000    -1.633000000
O     0.227000000     4.239000000    -2.056000000
H     0.978000000     4.715000000    -2.413000000
H     0.327000000     4.312000000    -1.106000000
O     1.928000000    -4.309000000     2.812000000
H     1.986000000    -5.171000000     2.399000000
H     1.005000000    -4.220000000     3.051000000
O     0.617000000     4.755000000     0.762000000
H     0.048000000     4.241000000     1.335000000
H     1.502000000     4.463000000     0.979000000
