158
-3065.63070
C    -0.336000000     1.458000000     0.144000000
H    -0.601000000     2.511000000     0.092000000
C    -0.293000000     0.700000000    -1.030000000
H    -0.415000000     1.088000000    -2.038000000
C     0.047000000    -0.668000000    -1.044000000
H     0.228000000    -1.117000000    -2.050000000
C     0.250000000    -1.323000000     0.172000000
H     0.699000000    -2.309000000     0.253000000
C     0.058000000    -0.635000000     1.362000000
H     0.206000000    -1.216000000     2.269000000
C    -0.124000000     0.791000000     1.375000000
C    -0.222000000     1.506000000     2.724000000
O     0.023000000     2.704000000     2.709000000
O    -0.599000000     0.952000000     3.716000000
O     4.685000000     2.692000000     2.506000000
H     4.087000000     2.988000000     1.819000000
H     5.234000000     3.454000000     2.690000000
O    -0.053000000    -2.330000000    -5.035000000
H     0.294000000    -2.132000000    -5.904000000
H    -0.013000000    -3.285000000    -4.973000000
O    -1.722000000    -4.589000000     0.047000000
H    -2.118000000    -3.723000000    -0.047000000
H    -0.869000000    -4.510000000    -0.380000000
O     3.036000000    -1.087000000     2.207000000
H     2.427000000    -0.930000000     1.485000000
H     2.518000000    -0.927000000     2.996000000
O    -3.065000000    -1.224000000    -3.296000000
H    -2.664000000    -2.045000000    -3.582000000
H    -3.554000000    -1.459000000    -2.507000000
O     1.118000000    -4.726000000    -4.288000000
H     1.603000000    -4.039000000    -3.831000000
H     1.664000000    -4.943000000    -5.044000000
O    -3.492000000     1.062000000    -4.818000000
H    -2.747000000     1.118000000    -5.417000000
H    -3.340000000     0.259000000    -4.320000000
O     0.594000000     2.430000000     7.569000000
H     0.678000000     3.111000000     6.901000000
H     1.416000000     2.473000000     8.059000000
O    -1.869000000    -5.611000000    -2.985000000
H    -2.508000000    -5.149000000    -3.529000000
H    -1.342000000    -4.915000000    -2.592000000
O     2.532000000     1.713000000    -0.717000000
H     3.157000000     1.231000000    -1.258000000
H     1.773000000     1.133000000    -0.652000000
O     0.143000000     0.396000000    -4.409000000
H    -0.312000000    -0.428000000    -4.232000000
H     1.063000000     0.146000000    -4.499000000
O     0.370000000    -2.936000000     4.658000000
H     1.057000000    -2.302000000     4.865000000
H     0.798000000    -3.577000000     4.091000000
O     3.251000000     2.092000000     4.605000000
H     3.517000000     2.819000000     5.169000000
H     3.702000000     2.254000000     3.777000000
O     3.532000000    -3.932000000     1.408000000
H     2.933000000    -3.513000000     2.027000000
H     4.298000000    -4.161000000     1.935000000
O     5.174000000    -1.555000000     3.946000000
H     4.387000000    -1.355000000     3.439000000
H     4.844000000    -1.815000000     4.807000000
O    -1.117000000     0.627000000     6.270000000
H    -0.545000000     1.204000000     6.776000000
H    -0.907000000     0.823000000     5.357000000
O    -1.815000000     4.429000000     3.073000000
H    -2.543000000     3.898000000     3.397000000
H    -1.101000000     3.804000000     2.949000000
O     0.776000000     5.820000000     6.853000000
H    -0.152000000     6.014000000     6.986000000
H     0.787000000     5.182000000     6.139000000
O    -2.216000000    -2.984000000     2.343000000
H    -2.357000000    -2.261000000     2.955000000
H    -2.566000000    -2.665000000     1.511000000
O    -3.723000000    -2.585000000    -0.471000000
H    -4.166000000    -1.801000000    -0.145000000
H    -4.340000000    -3.297000000    -0.303000000
O    -2.436000000     4.028000000    -5.635000000
H    -1.980000000     3.432000000    -5.040000000
H    -3.196000000     4.328000000    -5.137000000
O     1.600000000     5.892000000     3.291000000
H     1.541000000     5.781000000     4.240000000
H     1.819000000     6.816000000     3.172000000
O    -1.066000000     0.944000000    -6.894000000
H    -0.534000000     1.567000000    -7.389000000
H    -0.517000000     0.700000000    -6.149000000
O    -4.059000000     0.195000000     0.721000000
H    -3.987000000     0.050000000     1.664000000
H    -3.158000000     0.344000000     0.432000000
O     1.718000000    -0.241000000     4.356000000
H     2.287000000     0.515000000     4.499000000
H     0.852000000     0.054000000     4.639000000
O     2.561000000    -0.567000000    -4.507000000
H     2.306000000    -1.295000000    -3.941000000
H     3.338000000    -0.197000000    -4.086000000
O     0.881000000    -1.195000000     7.378000000
H     0.526000000    -0.314000000     7.498000000
H     0.118000000    -1.735000000     7.173000000
O    -2.979000000    -0.298000000     3.268000000
H    -2.134000000     0.117000000     3.439000000
H    -3.486000000    -0.150000000     4.067000000
O    -2.267000000    -3.429000000     5.187000000
H    -2.433000000    -3.272000000     4.258000000
H    -1.324000000    -3.299000000     5.287000000
O     1.235000000    -6.505000000     0.869000000
H     1.178000000    -7.453000000     0.990000000
H     1.767000000    -6.201000000     1.604000000
O    -3.550000000    -4.307000000    -4.620000000
H    -4.182000000    -3.789000000    -4.121000000
H    -4.088000000    -4.852000000    -5.194000000
O     4.077000000     4.176000000    -0.286000000
H     3.429000000     3.471000000    -0.317000000
H     3.645000000     4.877000000     0.202000000
O    -0.595000000     7.757000000     0.288000000
H    -0.899000000     8.042000000    -0.573000000
H    -0.277000000     6.865000000     0.147000000
O    -0.646000000     3.042000000    -3.742000000
H    -0.466000000     2.102000000    -3.715000000
H    -0.014000000     3.424000000    -3.134000000
O     0.966000000     3.623000000     5.176000000
H     0.374000000     3.455000000     4.443000000
H     1.654000000     2.964000000     5.083000000
O    -3.732000000     4.734000000     0.391000000
H    -3.535000000     3.929000000    -0.087000000
H    -3.112000000     4.737000000     1.121000000
O     0.592000000     5.342000000    -0.355000000
H     1.051000000     4.765000000     0.255000000
H     0.777000000     4.972000000    -1.219000000
O    -3.711000000     2.498000000     3.762000000
H    -3.991000000     1.865000000     3.101000000
H    -4.079000000     2.169000000     4.581000000
O     4.442000000    -2.425000000    -0.823000000
H     4.140000000    -3.055000000    -0.168000000
H     5.069000000    -1.874000000    -0.354000000
O     2.396000000    -2.947000000    -2.668000000
H     1.684000000    -3.108000000    -2.050000000
H     3.155000000    -2.760000000    -2.116000000
O    -3.393000000     2.732000000    -1.511000000
H    -2.748000000     3.149000000    -2.083000000
H    -4.118000000     2.504000000    -2.093000000
O     2.116000000    -5.146000000     3.901000000
H     2.417000000    -6.047000000     3.782000000
H     1.364000000    -5.065000000     3.314000000
O     0.556000000    -4.734000000    -1.510000000
H     1.064000000    -5.295000000    -0.924000000
H     0.699000000    -5.105000000    -2.380000000
O     1.612000000     3.803000000    -2.321000000
H     1.815000000     3.057000000    -1.756000000
H     2.260000000     3.754000000    -3.023000000
O     0.052000000    -4.481000000     2.311000000
H     0.002000000    -4.867000000     1.436000000
H    -0.729000000    -3.932000000     2.375000000
O    -1.558000000     7.001000000     4.281000000
H    -1.519000000     6.187000000     3.779000000
H    -1.034000000     7.621000000     3.773000000
O     2.075000000     3.946000000     1.617000000
H     1.395000000     3.284000000     1.745000000
H     2.003000000     4.515000000     2.383000000
O    -3.017000000    -1.159000000     7.186000000
H    -2.523000000    -0.431000000     6.809000000
H    -3.876000000    -1.107000000     6.767000000
