158
-3032.48345
C     1.070000000    -0.068000000    -0.987000000
H     1.924000000    -0.192000000    -1.648000000
C     1.051000000    -0.699000000     0.217000000
H     1.875000000    -1.315000000     0.569000000
C    -0.008000000    -0.537000000     1.111000000
H    -0.053000000    -1.004000000     2.065000000
C    -1.066000000     0.261000000     0.766000000
H    -1.813000000     0.553000000     1.499000000
C    -1.127000000     0.916000000    -0.473000000
H    -2.028000000     1.493000000    -0.663000000
C    -0.025000000     0.726000000    -1.383000000
C     0.002000000     1.232000000    -2.821000000
O    -1.116000000     1.435000000    -3.250000000
O     1.008000000     1.381000000    -3.503000000
O     1.348000000     1.612000000     7.030000000
H     1.567000000     1.206000000     7.868000000
H     1.162000000     0.876000000     6.448000000
O     0.646000000     4.086000000    -3.153000000
H     0.371000000     3.216000000    -3.444000000
H     0.626000000     4.036000000    -2.197000000
O    -1.872000000     3.008000000    -7.230000000
H    -1.764000000     3.959000000    -7.260000000
H    -1.092000000     2.665000000    -7.665000000
O     3.083000000    -5.766000000     1.071000000
H     2.301000000    -5.957000000     1.588000000
H     3.413000000    -6.626000000     0.809000000
O    -5.440000000     1.935000000    -1.219000000
H    -6.073000000     1.876000000    -1.934000000
H    -4.866000000     2.660000000    -1.466000000
O    -4.819000000    -2.677000000     3.091000000
H    -5.736000000    -2.620000000     3.358000000
H    -4.328000000    -2.365000000     3.851000000
O    -3.273000000     6.339000000    -3.642000000
H    -3.355000000     5.389000000    -3.557000000
H    -2.496000000     6.560000000    -3.129000000
O     0.659000000    -4.073000000     5.747000000
H     1.587000000    -4.288000000     5.654000000
H     0.320000000    -4.730000000     6.354000000
O    -4.023000000     4.889000000     2.230000000
H    -4.365000000     3.996000000     2.262000000
H    -3.251000000     4.871000000     2.795000000
O    -4.124000000    -3.165000000     6.241000000
H    -3.371000000    -3.466000000     5.732000000
H    -4.670000000    -3.945000000     6.343000000
O    -2.469000000     3.357000000    -4.295000000
H    -1.854000000     2.665000000    -4.053000000
H    -2.224000000     3.593000000    -5.190000000
O     3.641000000    -1.824000000     5.854000000
H     4.298000000    -1.520000000     5.227000000
H     2.834000000    -1.383000000     5.588000000
O    -1.384000000    -5.983000000    -0.335000000
H    -1.040000000    -6.202000000    -1.201000000
H    -0.835000000    -5.258000000    -0.035000000
O    -2.312000000    -0.224000000     6.919000000
H    -3.106000000    -0.363000000     7.435000000
H    -1.666000000    -0.812000000     7.311000000
O     3.211000000    -3.293000000    -0.177000000
H     3.140000000    -4.186000000     0.161000000
H     3.187000000    -3.394000000    -1.129000000
O    -1.110000000     1.678000000     3.698000000
H    -1.404000000     2.306000000     4.358000000
H    -0.971000000     2.205000000     2.911000000
O     6.476000000     1.199000000     0.100000000
H     5.691000000     1.725000000     0.251000000
H     6.150000000     0.306000000    -0.003000000
O    -2.709000000     2.822000000     5.520000000
H    -2.960000000     2.838000000     6.444000000
H    -3.411000000     2.334000000     5.089000000
O     1.123000000    -0.353000000     5.251000000
H     1.266000000     0.089000000     4.414000000
H     0.893000000    -1.251000000     5.013000000
O     4.789000000    -0.689000000     3.639000000
H     4.068000000    -0.427000000     3.066000000
H     5.300000000     0.110000000     3.763000000
O    -1.426000000    -1.111000000    -4.583000000
H    -1.787000000    -0.284000000    -4.262000000
H    -1.756000000    -1.184000000    -5.479000000
O    -1.868000000    -3.571000000     4.633000000
H    -0.967000000    -3.816000000     4.845000000
H    -1.824000000    -2.632000000     4.449000000
O     4.096000000    -2.629000000    -3.023000000
H     3.533000000    -1.925000000    -3.343000000
H     3.611000000    -3.431000000    -3.216000000
O     4.336000000     0.530000000    -5.521000000
H     4.537000000     0.150000000    -6.376000000
H     3.427000000     0.821000000    -5.597000000
O    -0.295000000    -0.731000000    -7.528000000
H    -1.208000000    -0.703000000    -7.240000000
H    -0.019000000    -1.633000000    -7.363000000
O     5.106000000     4.191000000    -3.346000000
H     5.550000000     3.667000000    -2.678000000
H     4.185000000     3.943000000    -3.271000000
O    -3.795000000    -3.382000000     0.736000000
H    -3.917000000    -2.691000000     0.085000000
H    -4.226000000    -3.048000000     1.523000000
O     5.584000000    -1.589000000    -0.191000000
H     6.134000000    -2.365000000    -0.083000000
H     4.711000000    -1.937000000    -0.371000000
O     0.725000000    -4.349000000    -2.161000000
H     0.506000000    -4.179000000    -3.077000000
H     1.258000000    -5.143000000    -2.185000000
O    -5.500000000     2.009000000     1.452000000
H    -6.320000000     1.544000000     1.616000000
H    -5.377000000     1.951000000     0.505000000
O     1.792000000    -1.441000000    -4.243000000
H     1.479000000    -0.536000000    -4.253000000
H     1.127000000    -1.930000000    -4.727000000
O     1.357000000     2.513000000     1.548000000
H     1.014000000     1.966000000     0.841000000
H     1.537000000     3.356000000     1.133000000
O    -3.951000000     0.338000000    -3.479000000
H    -4.582000000     0.899000000    -3.029000000
H    -3.148000000     0.858000000    -3.511000000
O     1.457000000     0.988000000    -6.114000000
H     1.093000000     1.311000000    -5.289000000
H     0.752000000     0.470000000    -6.501000000
O    -1.594000000     3.838000000     0.939000000
H    -2.066000000     4.606000000     0.617000000
H    -0.938000000     4.195000000     1.538000000
O     3.818000000     1.985000000     0.067000000
H     4.031000000     2.207000000    -0.840000000
H     3.152000000     1.301000000    -0.005000000
O     1.154000000     5.103000000    -0.391000000
H     1.837000000     5.586000000    -0.856000000
H     0.671000000     5.774000000     0.090000000
O    -4.548000000    -1.655000000    -1.473000000
H    -5.465000000    -1.410000000    -1.351000000
H    -4.222000000    -1.043000000    -2.133000000
O    -3.390000000    -5.783000000     3.799000000
H    -3.854000000    -5.635000000     2.975000000
H    -2.829000000    -5.015000000     3.900000000
O     2.534000000    -3.369000000     3.154000000
H     3.163000000    -4.090000000     3.125000000
H     3.062000000    -2.585000000     3.005000000
O     3.484000000     1.790000000    -2.644000000
H     2.595000000     1.754000000    -2.996000000
H     3.959000000     1.113000000    -3.126000000
O     3.447000000     3.111000000     5.523000000
H     2.698000000     2.805000000     6.035000000
H     3.652000000     2.381000000     4.939000000
O     3.292000000     1.502000000     3.264000000
H     3.992000000     2.036000000     2.888000000
H     2.491000000     1.844000000     2.869000000
O    -0.515000000    -3.621000000     0.580000000
H    -0.764000000    -2.785000000     0.974000000
H    -0.211000000    -3.391000000    -0.298000000
O    -2.218000000    -0.880000000     4.191000000
H    -2.447000000    -0.703000000     5.103000000
H    -1.684000000    -0.131000000     3.928000000
O    -4.204000000     1.179000000     3.845000000
H    -4.760000000     1.554000000     3.162000000
H    -3.562000000     0.652000000     3.369000000
O    -3.750000000     3.655000000    -2.108000000
H    -3.268000000     3.408000000    -2.897000000
H    -3.107000000     3.586000000    -1.403000000
O     0.959000000    -5.534000000     2.990000000
H     1.534000000    -4.776000000     3.090000000
H     0.084000000    -5.160000000     2.889000000
