158
-3038.37450
C     0.883000000     1.066000000     0.505000000
H     1.578000000     1.851000000     0.792000000
C     0.632000000     0.797000000    -0.825000000
H     1.052000000     1.380000000    -1.641000000
C    -0.190000000    -0.287000000    -1.210000000
H    -0.572000000    -0.534000000    -2.251000000
C    -0.876000000    -1.002000000    -0.224000000
H    -1.610000000    -1.775000000    -0.439000000
C    -0.584000000    -0.758000000     1.169000000
H    -1.037000000    -1.348000000     1.962000000
C     0.304000000     0.299000000     1.537000000
C     0.662000000     0.545000000     3.000000000
O     1.367000000     1.514000000     3.298000000
O     0.120000000    -0.158000000     3.898000000
O    -1.522000000    -5.822000000     1.632000000
H    -1.646000000    -4.876000000     1.699000000
H    -1.301000000    -5.971000000     0.713000000
O    -2.377000000     3.081000000     7.005000000
H    -2.029000000     3.036000000     6.115000000
H    -3.228000000     2.646000000     6.951000000
O    -1.952000000    -2.420000000    -3.063000000
H    -2.573000000    -1.709000000    -2.899000000
H    -2.326000000    -3.173000000    -2.606000000
O    -2.342000000    -0.121000000     4.753000000
H    -2.305000000    -0.815000000     5.411000000
H    -1.456000000    -0.085000000     4.392000000
O    -5.131000000     0.006000000     1.823000000
H    -5.398000000     0.625000000     1.144000000
H    -5.680000000     0.226000000     2.576000000
O    -1.447000000     3.089000000     4.564000000
H    -0.544000000     3.071000000     4.246000000
H    -1.944000000     2.610000000     3.901000000
O    -0.350000000    -1.653000000    -5.459000000
H    -0.928000000    -0.940000000    -5.732000000
H    -0.858000000    -2.139000000    -4.810000000
O    -2.262000000    -2.639000000     5.870000000
H    -2.493000000    -3.098000000     6.678000000
H    -1.305000000    -2.642000000     5.858000000
O     1.148000000    -4.090000000    -0.304000000
H     1.648000000    -3.654000000     0.387000000
H     0.819000000    -3.375000000    -0.848000000
O     3.064000000     3.732000000     3.558000000
H     3.677000000     3.451000000     2.879000000
H     2.488000000     2.978000000     3.687000000
O    -6.090000000    -1.217000000    -1.298000000
H    -7.027000000    -1.159000000    -1.111000000
H    -5.717000000    -1.633000000    -0.521000000
O     4.709000000    -1.024000000     1.852000000
H     4.561000000    -1.366000000     2.734000000
H     4.032000000    -0.357000000     1.738000000
O    -3.064000000    -4.386000000    -0.513000000
H    -3.564000000    -3.648000000    -0.164000000
H    -3.242000000    -5.105000000     0.094000000
O    -0.251000000    -5.199000000    -3.526000000
H    -1.109000000    -4.791000000    -3.642000000
H    -0.243000000    -5.484000000    -2.612000000
O    -3.153000000    -5.068000000    -3.022000000
H    -3.955000000    -4.550000000    -3.089000000
H    -3.046000000    -5.222000000    -2.083000000
O     0.321000000    -2.861000000     3.633000000
H     1.171000000    -3.136000000     3.290000000
H     0.408000000    -1.917000000     3.762000000
O    -3.902000000    -0.616000000    -6.353000000
H    -4.409000000    -0.017000000    -6.901000000
H    -3.058000000    -0.180000000    -6.237000000
O     1.417000000    -3.921000000     6.197000000
H     0.918000000    -3.791000000     5.390000000
H     1.197000000    -3.163000000     6.739000000
O     5.013000000     2.056000000     6.984000000
H     4.275000000     1.606000000     6.573000000
H     4.729000000     2.967000000     7.055000000
O     1.867000000     4.005000000    -0.540000000
H     2.271000000     4.646000000     0.045000000
H     0.959000000     4.297000000    -0.623000000
O    -5.298000000    -3.917000000     3.305000000
H    -4.417000000    -3.778000000     3.654000000
H    -5.862000000    -3.927000000     4.078000000
O     1.114000000     2.265000000     6.979000000
H     1.620000000     1.833000000     6.291000000
H     0.487000000     1.602000000     7.267000000
O     2.701000000    -0.952000000    -5.086000000
H     2.882000000    -0.305000000    -4.404000000
H     1.806000000    -1.241000000    -4.910000000
O     3.651000000     6.049000000    -0.138000000
H     4.236000000     6.771000000     0.094000000
H     4.238000000     5.323000000    -0.348000000
O    -1.856000000     1.062000000    -5.797000000
H    -1.210000000     1.544000000    -6.312000000
H    -2.035000000     1.628000000    -5.047000000
O    -4.717000000    -2.659000000     0.965000000
H    -5.099000000    -3.257000000     1.608000000
H    -4.881000000    -1.787000000     1.324000000
O     2.480000000    -0.439000000     7.792000000
H     3.354000000    -0.712000000     8.071000000
H     2.638000000     0.186000000     7.085000000
O     0.047000000    -1.235000000     6.408000000
H     0.234000000    -0.546000000     7.045000000
H     0.171000000    -0.814000000     5.557000000
O     1.789000000     1.202000000    -6.650000000
H     1.776000000     1.728000000    -5.850000000
H     2.202000000     0.379000000    -6.388000000
O     2.424000000     5.978000000     5.278000000
H     2.485000000     5.024000000     5.329000000
H     1.559000000     6.182000000     5.632000000
O    -0.547000000     0.643000000     8.229000000
H    -0.672000000     1.097000000     9.062000000
H    -1.376000000     0.187000000     8.079000000
O    -0.480000000    -6.193000000    -0.672000000
H     0.047000000    -5.420000000    -0.471000000
H     0.161000000    -6.884000000    -0.836000000
O     2.907000000     0.811000000     5.344000000
H     2.430000000     1.275000000     4.656000000
H     3.386000000     0.124000000     4.881000000
O     2.736000000     1.031000000    -3.191000000
H     3.171000000     1.283000000    -2.377000000
H     2.427000000     1.857000000    -3.563000000
O     4.435000000     1.856000000     1.724000000
H     5.005000000     2.155000000     1.016000000
H     5.006000000     1.331000000     2.286000000
O    -2.935000000     1.724000000     2.961000000
H    -3.552000000     1.348000000     2.334000000
H    -2.815000000     1.039000000     3.620000000
O    -5.202000000     1.443000000    -4.833000000
H    -5.520000000     1.667000000    -5.708000000
H    -4.732000000     0.618000000    -4.953000000
O    -3.344000000    -3.328000000    -5.848000000
H    -3.611000000    -3.460000000    -4.938000000
H    -3.907000000    -2.621000000    -6.163000000
O    -2.482000000     2.070000000    -0.440000000
H    -1.846000000     1.387000000    -0.228000000
H    -2.161000000     2.847000000     0.019000000
O    -4.075000000    -0.641000000    -3.009000000
H    -4.878000000    -0.660000000    -2.488000000
H    -4.250000000    -1.232000000    -3.741000000
O    -2.676000000     3.766000000    -4.287000000
H    -3.527000000     3.502000000    -4.638000000
H    -2.457000000     3.083000000    -3.653000000
O     1.758000000     3.205000000    -4.731000000
H     1.006000000     3.723000000    -4.443000000
H     2.419000000     3.854000000    -4.969000000
O     0.381000000     5.152000000     1.601000000
H    -0.438000000     4.658000000     1.569000000
H     1.038000000     4.509000000     1.869000000
O    -2.260000000     1.395000000    -3.038000000
H    -2.941000000     0.728000000    -3.114000000
H    -2.058000000     1.426000000    -2.103000000
O     3.795000000     2.259000000    -1.126000000
H     3.807000000     1.780000000    -0.298000000
H     3.038000000     2.842000000    -1.055000000
O     0.308000000    -5.077000000    -6.225000000
H     0.478000000    -6.017000000    -6.158000000
H     0.062000000    -4.815000000    -5.338000000
O     2.755000000    -3.256000000     2.492000000
H     3.372000000    -3.312000000     1.763000000
H     2.989000000    -3.990000000     3.061000000
O    -2.267000000    -3.392000000     3.161000000
H    -2.608000000    -2.499000000     3.204000000
H    -1.319000000    -3.291000000     3.240000000
