158
-3004.42958
C     0.299000000     0.714000000     1.275000000
H     0.414000000     1.409000000     2.103000000
C     0.940000000     0.923000000     0.038000000
H     1.579000000     1.797000000    -0.063000000
C     0.651000000     0.099000000    -1.040000000
H     1.185000000     0.217000000    -1.973000000
C    -0.224000000    -0.974000000    -0.909000000
H    -0.385000000    -1.613000000    -1.773000000
C    -1.003000000    -1.086000000     0.267000000
H    -1.728000000    -1.893000000     0.339000000
C    -0.741000000    -0.266000000     1.337000000
C    -1.565000000    -0.398000000     2.631000000
O    -1.448000000     0.429000000     3.464000000
O    -2.440000000    -1.221000000     2.743000000
O    -1.375000000     5.048000000     4.433000000
H    -1.789000000     5.798000000     4.860000000
H    -0.764000000     4.708000000     5.087000000
O     2.885000000     6.499000000    -2.766000000
H     3.004000000     5.636000000    -2.368000000
H     2.017000000     6.778000000    -2.476000000
O    -2.705000000    -4.090000000     1.799000000
H    -3.173000000    -3.279000000     1.996000000
H    -2.052000000    -4.165000000     2.494000000
O    -3.398000000     3.935000000    -1.468000000
H    -4.080000000     3.275000000    -1.345000000
H    -2.590000000     3.500000000    -1.196000000
O     1.027000000    -1.755000000    -4.771000000
H     1.862000000    -2.224000000    -4.766000000
H     0.527000000    -2.164000000    -5.477000000
O    -4.785000000    -1.881000000    -1.872000000
H    -4.790000000    -2.100000000    -2.804000000
H    -5.255000000    -2.603000000    -1.454000000
O     4.764000000    -1.286000000    -2.968000000
H     4.303000000    -2.013000000    -3.386000000
H     4.662000000    -0.555000000    -3.577000000
O     4.459000000     4.122000000    -4.437000000
H     3.747000000     4.336000000    -5.040000000
H     4.042000000     4.090000000    -3.576000000
O    -2.713000000     2.942000000     3.346000000
H    -2.028000000     3.594000000     3.494000000
H    -2.260000000     2.101000000     3.398000000
O     3.552000000    -3.407000000    -4.222000000
H     2.781000000    -3.467000000    -3.657000000
H     3.591000000    -4.254000000    -4.665000000
O     4.132000000     1.312000000    -0.740000000
H     4.080000000     1.602000000     0.171000000
H     4.214000000     0.360000000    -0.683000000
O     1.446000000    -5.507000000    -2.534000000
H     2.218000000    -6.032000000    -2.320000000
H     0.802000000    -6.144000000    -2.845000000
O    -2.509000000    -4.318000000    -3.048000000
H    -3.019000000    -3.656000000    -3.515000000
H    -1.674000000    -4.350000000    -3.516000000
O     4.011000000     3.030000000     1.538000000
H     3.382000000     3.607000000     1.104000000
H     4.762000000     3.592000000     1.726000000
O     3.032000000     4.891000000     3.447000000
H     3.276000000     4.101000000     2.965000000
H     3.839000000     5.163000000     3.884000000
O    -4.931000000     0.936000000     3.010000000
H    -4.041000000     0.599000000     2.904000000
H    -4.812000000     1.823000000     3.349000000
O    -3.189000000     0.446000000    -1.680000000
H    -3.264000000     0.449000000    -2.635000000
H    -3.653000000    -0.345000000    -1.406000000
O    -7.180000000    -0.952000000     3.079000000
H    -6.442000000    -0.360000000     2.929000000
H    -7.729000000    -0.493000000     3.714000000
O     6.552000000     2.504000000    -1.808000000
H     6.637000000     3.006000000    -0.998000000
H     5.692000000     2.090000000    -1.745000000
O    -4.664000000     1.883000000     0.310000000
H    -4.949000000     1.544000000     1.159000000
H    -4.295000000     1.124000000    -0.140000000
O    -5.760000000    -4.366000000    -1.323000000
H    -4.911000000    -4.688000000    -1.022000000
H    -6.400000000    -4.900000000    -0.853000000
O     2.617000000     2.367000000     6.620000000
H     2.393000000     1.818000000     7.372000000
H     2.873000000     1.746000000     5.938000000
O     4.080000000    -1.347000000    -6.632000000
H     3.758000000    -0.652000000    -6.058000000
H     3.876000000    -2.158000000    -6.165000000
O    -1.120000000     2.108000000    -2.526000000
H    -0.592000000     1.762000000    -3.246000000
H    -1.579000000     1.344000000    -2.177000000
O    -3.085000000     3.766000000     6.441000000
H    -2.454000000     4.268000000     5.926000000
H    -3.309000000     3.019000000     5.885000000
O     0.002000000     0.763000000    -4.849000000
H     0.554000000     1.436000000    -5.247000000
H     0.347000000    -0.062000000    -5.190000000
O     0.309000000    -0.545000000     7.799000000
H     0.388000000    -0.102000000     6.954000000
H     0.780000000     0.020000000     8.411000000
O     1.837000000    -1.746000000     4.602000000
H     1.232000000    -1.011000000     4.510000000
H     1.869000000    -2.142000000     3.731000000
O    -3.117000000    -5.280000000    -0.542000000
H    -2.869000000    -4.727000000    -1.283000000
H    -2.759000000    -4.830000000     0.223000000
O     1.364000000    -2.669000000     2.032000000
H     1.240000000    -2.178000000     1.219000000
H     0.947000000    -3.515000000     1.867000000
O    -2.393000000     0.301000000     7.480000000
H    -2.785000000    -0.568000000     7.393000000
H    -1.500000000     0.131000000     7.781000000
O     0.199000000     0.688000000     5.385000000
H    -0.406000000     0.660000000     4.644000000
H     0.085000000     1.564000000     5.754000000
O    -4.968000000    -3.213000000     3.821000000
H    -5.776000000    -2.847000000     3.461000000
H    -4.519000000    -2.464000000     4.214000000
O    -1.751000000     4.658000000    -3.570000000
H    -1.437000000     3.791000000    -3.826000000
H    -2.197000000     4.515000000    -2.735000000
O     4.484000000     1.826000000     4.353000000
H     4.447000000     1.981000000     3.409000000
H     4.480000000     0.873000000     4.439000000
O    -5.003000000     4.092000000     2.348000000
H    -4.281000000     3.465000000     2.379000000
H    -4.626000000     4.908000000     2.678000000
O    -2.697000000    -0.196000000    -4.469000000
H    -3.084000000     0.251000000    -5.223000000
H    -1.755000000    -0.057000000    -4.565000000
O     4.472000000    -0.848000000     2.154000000
H     5.423000000    -0.748000000     2.196000000
H     4.295000000    -1.076000000     1.241000000
O    -3.940000000    -1.096000000     5.149000000
H    -3.200000000    -1.166000000     4.546000000
H    -4.065000000    -0.154000000     5.265000000
O     0.050000000     6.404000000     1.988000000
H    -0.712000000     6.511000000     1.419000000
H    -0.048000000     5.527000000     2.358000000
O     1.639000000     2.674000000    -5.873000000
H     1.979000000     2.605000000    -6.765000000
H     1.747000000     3.597000000    -5.646000000
O     3.535000000     3.837000000    -1.762000000
H     3.468000000     2.897000000    -1.595000000
H     3.241000000     4.246000000    -0.948000000
O     3.995000000    -1.491000000    -0.360000000
H     3.257000000    -2.100000000    -0.325000000
H     4.125000000    -1.325000000    -1.294000000
O     2.251000000     5.018000000     0.315000000
H     1.407000000     5.235000000    -0.082000000
H     2.164000000     5.296000000     1.227000000
O     3.934000000     0.745000000    -5.007000000
H     4.689000000     1.318000000    -5.146000000
H     3.267000000     1.316000000    -4.627000000
O     0.289000000     4.120000000    -1.425000000
H    -0.079000000     3.511000000    -2.065000000
H     1.162000000     3.775000000    -1.239000000
O     1.881000000    -3.680000000    -0.533000000
H     2.103000000    -4.416000000     0.038000000
H     1.591000000    -4.088000000    -1.349000000
O    -1.398000000    -3.315000000     4.146000000
H    -1.259000000    -3.035000000     5.051000000
H    -1.954000000    -2.635000000     3.767000000
