158
-3074.94419
C     0.372000000     0.468000000     1.366000000
H     0.691000000     0.781000000     2.357000000
C     0.994000000     0.889000000     0.138000000
H     1.861000000     1.530000000     0.278000000
C     0.580000000     0.404000000    -1.079000000
H     1.008000000     0.771000000    -2.070000000
C    -0.520000000    -0.505000000    -1.075000000
H    -0.928000000    -0.886000000    -2.007000000
C    -1.206000000    -0.908000000     0.131000000
H    -2.091000000    -1.536000000     0.075000000
C    -0.737000000    -0.437000000     1.336000000
C    -1.439000000    -0.951000000     2.623000000
O    -1.360000000    -0.315000000     3.653000000
O    -2.126000000    -1.967000000     2.607000000
O     1.422000000    -1.405000000    -3.651000000
H     0.621000000    -1.020000000    -4.006000000
H     1.347000000    -2.339000000    -3.850000000
O     1.001000000    -3.696000000     2.771000000
H     1.513000000    -3.107000000     3.326000000
H     0.233000000    -3.915000000     3.298000000
O    -4.354000000    -0.579000000     1.159000000
H    -4.063000000    -0.134000000     0.363000000
H    -3.699000000    -1.262000000     1.305000000
O     0.880000000    -1.022000000     7.403000000
H     0.465000000    -0.953000000     6.544000000
H     0.156000000    -1.190000000     8.006000000
O    -6.851000000    -2.935000000     3.417000000
H    -5.938000000    -2.668000000     3.522000000
H    -7.344000000    -2.115000000     3.436000000
O     3.926000000     5.556000000     2.805000000
H     3.870000000     4.661000000     2.471000000
H     3.053000000     5.920000000     2.662000000
O     3.947000000    -0.298000000    -3.540000000
H     4.239000000    -0.880000000    -2.838000000
H     3.042000000    -0.560000000    -3.708000000
O     6.322000000     1.093000000     2.056000000
H     6.548000000     2.003000000     1.864000000
H     6.036000000     0.734000000     1.216000000
O    -1.310000000     2.476000000     3.926000000
H    -1.293000000     2.434000000     4.882000000
H    -1.373000000     1.563000000     3.647000000
O     4.836000000    -2.252000000    -1.584000000
H     3.992000000    -2.257000000    -1.131000000
H     5.174000000    -3.140000000    -1.469000000
O     3.446000000     3.557000000     0.066000000
H     3.166000000     3.036000000     0.819000000
H     4.122000000     3.026000000    -0.354000000
O     0.970000000    -3.833000000    -0.031000000
H     1.532000000    -3.087000000    -0.240000000
H     0.833000000    -3.771000000     0.915000000
O    -1.377000000    -4.021000000    -1.877000000
H    -0.521000000    -4.149000000    -1.468000000
H    -1.980000000    -4.530000000    -1.335000000
O    -4.556000000    -2.914000000     6.626000000
H    -4.194000000    -2.976000000     5.742000000
H    -3.794000000    -2.770000000     7.187000000
O    -2.411000000    -4.200000000     0.997000000
H    -2.155000000    -4.844000000     1.658000000
H    -1.749000000    -3.511000000     1.065000000
O     0.753000000     3.804000000     2.315000000
H     0.769000000     4.216000000     3.179000000
H    -0.115000000     3.406000000     2.256000000
O    -3.225000000     0.918000000    -0.800000000
H    -2.284000000     0.785000000    -0.919000000
H    -3.387000000     1.798000000    -1.139000000
O     2.893000000     0.846000000     4.882000000
H     2.219000000     1.280000000     5.405000000
H     3.717000000     1.089000000     5.303000000
O    -3.581000000     3.102000000    -3.044000000
H    -2.661000000     3.124000000    -3.305000000
H    -3.985000000     3.821000000    -3.530000000
O    -2.836000000     3.354000000     1.809000000
H    -2.801000000     3.032000000     0.908000000
H    -2.432000000     2.659000000     2.328000000
O     0.822000000     2.129000000     6.156000000
H     1.335000000     2.206000000     6.961000000
H    -0.029000000     2.507000000     6.376000000
O     0.918000000     3.010000000    -5.459000000
H     1.347000000     3.859000000    -5.358000000
H     1.632000000     2.374000000    -5.421000000
O    -6.946000000    -0.417000000     2.500000000
H    -6.147000000    -0.457000000     1.974000000
H    -7.395000000     0.371000000     2.194000000
O    -0.924000000     3.071000000    -0.977000000
H    -0.045000000     2.945000000    -0.619000000
H    -0.941000000     2.529000000    -1.765000000
O     0.608000000     6.164000000    -3.342000000
H    -0.316000000     6.111000000    -3.098000000
H     1.049000000     5.562000000    -2.743000000
O    -1.165000000    -3.490000000     4.614000000
H    -1.549000000    -2.972000000     3.907000000
H    -1.383000000    -3.007000000     5.411000000
O    -4.647000000    -3.522000000    -0.942000000
H    -4.152000000    -3.370000000    -0.137000000
H    -5.390000000    -2.921000000    -0.884000000
O    -3.910000000     0.307000000     6.825000000
H    -4.751000000     0.095000000     7.230000000
H    -4.070000000     0.227000000     5.884000000
O    -1.727000000    -1.332000000     6.189000000
H    -1.626000000    -0.817000000     5.389000000
H    -2.391000000    -0.864000000     6.694000000
O     3.390000000     2.514000000     2.545000000
H     3.540000000     1.878000000     3.245000000
H     2.448000000     2.680000000     2.571000000
O     6.195000000    -0.157000000    -5.197000000
H     6.019000000    -0.901000000    -5.773000000
H     5.461000000    -0.150000000    -4.583000000
O     2.318000000    -1.779000000     4.052000000
H     3.042000000    -1.610000000     3.449000000
H     2.292000000    -1.007000000     4.617000000
O     3.007000000     1.103000000    -5.485000000
H     3.355000000     0.767000000    -4.659000000
H     3.007000000     0.346000000    -6.071000000
O     6.103000000    -0.110000000    -0.268000000
H     6.952000000    -0.504000000    -0.469000000
H     5.466000000    -0.793000000    -0.479000000
O    -4.700000000     0.609000000    -3.640000000
H    -4.017000000     0.002000000    -3.925000000
H    -4.231000000     1.416000000    -3.431000000
O    -1.049000000     1.931000000    -3.527000000
H    -0.267000000     2.336000000    -3.903000000
H    -1.204000000     1.159000000    -4.072000000
O     4.445000000    -1.226000000     2.303000000
H     5.099000000    -1.925000000     2.284000000
H     4.877000000    -0.507000000     2.765000000
O    -1.071000000    -5.050000000    -4.665000000
H    -1.075000000    -4.667000000    -3.788000000
H    -1.829000000    -4.659000000    -5.101000000
O    -3.376000000    -2.170000000    -3.108000000
H    -2.666000000    -2.698000000    -2.743000000
H    -4.096000000    -2.275000000    -2.486000000
O    -4.120000000     0.342000000     3.849000000
H    -3.208000000     0.055000000     3.799000000
H    -4.555000000    -0.117000000     3.131000000
O    -0.297000000    -5.011000000     6.594000000
H     0.590000000    -5.187000000     6.281000000
H    -0.716000000    -4.540000000     5.872000000
O    -1.114000000    -0.353000000    -5.175000000
H    -1.956000000    -0.790000000    -5.048000000
H    -1.021000000    -0.285000000    -6.126000000
O     1.794000000     4.916000000    -1.260000000
H     1.234000000     5.196000000    -0.536000000
H     2.483000000     4.398000000    -0.844000000
O     5.367000000     2.194000000    -1.509000000
H     6.289000000     2.207000000    -1.766000000
H     5.286000000     1.424000000    -0.946000000
O     4.330000000     4.239000000    -2.914000000
H     4.514000000     3.538000000    -2.288000000
H     3.663000000     4.774000000    -2.484000000
O     4.864000000     3.717000000    -5.365000000
H     4.405000000     2.889000000    -5.502000000
H     4.738000000     3.911000000    -4.437000000
O     2.561000000    -1.713000000     0.175000000
H     1.791000000    -1.153000000     0.270000000
H     3.087000000    -1.533000000     0.955000000
O    -4.044000000    -3.176000000     3.840000000
H    -4.326000000    -3.855000000     3.226000000
H    -3.254000000    -2.808000000     3.444000000
