158
-3034.19009
C     0.941000000     0.486000000     1.070000000
H     1.675000000     0.958000000     1.719000000
C     0.935000000     0.930000000    -0.212000000
H     1.493000000     1.804000000    -0.538000000
C     0.146000000     0.297000000    -1.162000000
H     0.113000000     0.659000000    -2.199000000
C    -0.730000000    -0.755000000    -0.804000000
H    -1.351000000    -1.136000000    -1.611000000
C    -0.694000000    -1.159000000     0.523000000
H    -1.288000000    -2.017000000     0.825000000
C     0.052000000    -0.526000000     1.462000000
C    -0.230000000    -0.874000000     2.936000000
O     0.291000000    -0.316000000     3.860000000
O    -1.144000000    -1.633000000     3.103000000
O    -2.974000000     2.026000000     5.957000000
H    -2.946000000     1.265000000     5.378000000
H    -2.920000000     1.659000000     6.839000000
O    -3.028000000    -2.417000000    -4.933000000
H    -3.638000000    -1.682000000    -4.992000000
H    -3.090000000    -2.849000000    -5.785000000
O     1.665000000    -4.330000000     3.341000000
H     1.014000000    -4.467000000     4.029000000
H     1.989000000    -3.442000000     3.490000000
O    -2.309000000    -7.068000000     3.019000000
H    -1.917000000    -6.201000000     2.923000000
H    -3.234000000    -6.937000000     2.810000000
O    -3.142000000     0.198000000     3.565000000
H    -3.900000000    -0.231000000     3.168000000
H    -2.402000000    -0.362000000     3.335000000
O    -0.708000000     0.037000000     6.451000000
H    -0.153000000    -0.033000000     5.674000000
H    -1.127000000     0.894000000     6.369000000
O    -0.418000000    -1.688000000    -4.973000000
H    -1.313000000    -1.949000000    -5.190000000
H    -0.256000000    -2.080000000    -4.115000000
O    -5.233000000    -1.475000000     2.678000000
H    -5.735000000    -0.670000000     2.548000000
H    -5.797000000    -2.022000000     3.225000000
O    -4.009000000    -4.322000000     5.080000000
H    -3.944000000    -4.931000000     5.816000000
H    -3.166000000    -3.870000000     5.068000000
O     0.577000000    -2.682000000    -2.608000000
H    -0.001000000    -2.897000000    -1.875000000
H     1.276000000    -2.158000000    -2.216000000
O     5.831000000     1.874000000    -0.528000000
H     5.419000000     2.391000000     0.164000000
H     5.140000000     1.751000000    -1.179000000
O     0.372000000     2.210000000     3.995000000
H    -0.484000000     2.570000000     3.761000000
H     0.218000000     1.269000000     4.087000000
O     2.821000000    -1.742000000    -1.147000000
H     3.019000000    -2.678000000    -1.113000000
H     2.761000000    -1.476000000    -0.229000000
O    -4.991000000    -4.868000000    -0.727000000
H    -5.627000000    -5.262000000    -0.129000000
H    -5.227000000    -3.941000000    -0.751000000
O     4.607000000     3.036000000     1.429000000
H     4.304000000     2.556000000     2.200000000
H     4.666000000     3.945000000     1.722000000
O    -2.708000000    -4.639000000    -3.206000000
H    -2.926000000    -3.816000000    -3.643000000
H    -3.107000000    -4.564000000    -2.340000000
O    -1.676000000    -4.420000000     2.598000000
H    -1.090000000    -4.500000000     1.845000000
H    -1.622000000    -3.498000000     2.847000000
O     0.238000000     4.397000000     6.112000000
H    -0.054000000     3.823000000     6.820000000
H     0.227000000     3.841000000     5.333000000
O     0.336000000    -4.572000000     6.035000000
H    -0.414000000    -4.230000000     5.547000000
H     0.485000000    -3.929000000     6.728000000
O     3.887000000    -0.190000000     5.914000000
H     3.820000000    -0.109000000     6.866000000
H     4.813000000    -0.039000000     5.726000000
O    -4.598000000     0.215000000    -2.684000000
H    -4.293000000     0.311000000    -3.586000000
H    -3.924000000     0.643000000    -2.157000000
O    -2.142000000     2.766000000     3.190000000
H    -2.517000000     1.894000000     3.064000000
H    -2.802000000     3.240000000     3.695000000
O     0.895000000     0.549000000     8.680000000
H     0.315000000     0.484000000     7.921000000
H     0.304000000     0.607000000     9.430000000
O     0.958000000    -0.177000000    -6.901000000
H     1.755000000     0.236000000    -6.570000000
H     0.540000000    -0.549000000    -6.124000000
O     0.792000000     5.035000000    -0.630000000
H     0.824000000     5.729000000     0.028000000
H     0.102000000     4.446000000    -0.324000000
O     1.554000000     4.880000000    -3.230000000
H     2.469000000     5.007000000    -3.478000000
H     1.577000000     4.762000000    -2.280000000
O    -4.250000000     0.058000000    -5.457000000
H    -3.859000000     0.550000000    -6.180000000
H    -5.176000000     0.299000000    -5.478000000
O    -5.860000000    -1.481000000    -0.012000000
H    -5.558000000    -1.598000000     0.889000000
H    -6.063000000    -0.547000000    -0.077000000
O     0.894000000    -2.309000000     7.859000000
H     1.637000000    -1.807000000     8.192000000
H     0.186000000    -1.669000000     7.785000000
O    -1.341000000     6.499000000    -1.718000000
H    -0.884000000     7.280000000    -2.030000000
H    -0.794000000     5.770000000    -2.008000000
O    -1.916000000    -2.453000000     5.539000000
H    -1.703000000    -1.739000000     6.140000000
H    -1.642000000    -2.132000000     4.680000000
O    -1.000000000     4.540000000    -3.746000000
H    -1.202000000     3.643000000    -4.010000000
H    -0.047000000     4.555000000    -3.657000000
O     3.105000000     2.382000000     3.634000000
H     2.169000000     2.577000000     3.588000000
H     3.213000000     1.921000000     4.466000000
O    -0.524000000    -6.362000000    -0.741000000
H    -0.090000000    -7.177000000    -0.488000000
H     0.064000000    -5.672000000    -0.433000000
O     2.426000000    -1.476000000     4.040000000
H     2.872000000    -0.926000000     4.684000000
H     1.552000000    -1.095000000     3.964000000
O     3.388000000     0.108000000    -5.620000000
H     3.383000000    -0.719000000    -5.138000000
H     3.474000000     0.779000000    -4.943000000
O     3.580000000     0.868000000    -2.229000000
H     4.261000000     0.396000000    -2.709000000
H     3.161000000     0.198000000    -1.688000000
O    -2.696000000     1.289000000    -1.174000000
H    -2.874000000     2.229000000    -1.130000000
H    -1.855000000     1.183000000    -0.731000000
O    -2.621000000     3.974000000    -1.090000000
H    -2.260000000     4.578000000    -1.739000000
H    -2.477000000     4.410000000    -0.250000000
O     4.407000000    -1.382000000     1.338000000
H     4.930000000    -0.581000000     1.307000000
H     3.909000000    -1.313000000     2.152000000
O     1.684000000    -5.037000000    -3.772000000
H     0.870000000    -5.498000000    -3.570000000
H     1.435000000    -4.113000000    -3.799000000
O    -4.196000000    -0.916000000     6.584000000
H    -3.694000000    -1.505000000     6.021000000
H    -5.003000000    -0.748000000     6.096000000
O     1.510000000     3.201000000    -5.417000000
H     0.850000000     2.513000000    -5.502000000
H     1.099000000     3.860000000    -4.857000000
O    -0.880000000     1.761000000    -5.790000000
H    -1.787000000     1.859000000    -6.079000000
H    -0.545000000     1.021000000    -6.295000000
O     3.628000000     3.392000000    -1.594000000
H     3.735000000     2.476000000    -1.849000000
H     3.170000000     3.355000000    -0.754000000
O     5.289000000     5.429000000    -1.569000000
H     5.185000000     5.554000000    -2.512000000
H     4.688000000     4.715000000    -1.354000000
O     0.971000000    -4.539000000     0.809000000
H     1.435000000    -3.852000000     0.332000000
H     1.465000000    -4.642000000     1.622000000
O    -4.474000000    -5.517000000     2.517000000
H    -4.187000000    -5.246000000     3.388000000
H    -3.934000000    -5.005000000     1.916000000
