158
-3032.84741
C     0.865000000    -0.179000000     1.194000000
H     1.330000000    -0.664000000     2.049000000
C    -0.462000000     0.178000000     1.242000000
H    -0.986000000     0.209000000     2.194000000
C    -1.139000000     0.439000000     0.035000000
H    -2.192000000     0.730000000     0.043000000
C    -0.524000000     0.122000000    -1.186000000
H    -0.937000000     0.240000000    -2.185000000
C     0.779000000    -0.322000000    -1.208000000
H     1.258000000    -0.507000000    -2.166000000
C     1.504000000    -0.370000000    -0.039000000
C     2.932000000    -0.811000000    -0.138000000
O     3.274000000    -1.392000000    -1.174000000
O     3.602000000    -0.908000000     0.880000000
O     5.165000000    -0.279000000    -2.700000000
H     4.670000000     0.506000000    -2.932000000
H     4.549000000    -0.810000000    -2.195000000
O    -4.856000000     2.550000000     0.281000000
H    -5.687000000     2.075000000     0.322000000
H    -4.223000000     1.959000000     0.689000000
O     4.307000000    -3.701000000    -1.856000000
H     3.976000000    -2.941000000    -1.378000000
H     4.190000000    -3.474000000    -2.778000000
O    -1.338000000     2.847000000     4.763000000
H    -1.257000000     3.303000000     3.925000000
H    -0.465000000     2.905000000     5.152000000
O    -6.888000000     0.864000000     0.881000000
H    -7.450000000     1.565000000     1.213000000
H    -6.937000000     0.182000000     1.550000000
O    -4.080000000     1.976000000     3.842000000
H    -4.428000000     1.624000000     4.662000000
H    -3.220000000     2.325000000     4.077000000
O    -4.676000000     5.708000000     1.381000000
H    -4.768000000     4.813000000     1.056000000
H    -4.440000000     6.221000000     0.607000000
O    -2.958000000     0.023000000    -4.219000000
H    -2.016000000    -0.138000000    -4.281000000
H    -3.038000000     0.728000000    -3.578000000
O     6.354000000    -2.620000000     3.119000000
H     6.313000000    -3.121000000     3.934000000
H     5.930000000    -3.183000000     2.471000000
O     2.456000000    -1.094000000    -4.694000000
H     2.986000000    -1.876000000    -4.852000000
H     3.009000000    -0.368000000    -4.983000000
O     4.087000000    -3.290000000    -4.989000000
H     5.029000000    -3.346000000    -5.152000000
H     3.685000000    -3.621000000    -5.792000000
O     0.381000000     2.916000000    -0.222000000
H     0.512000000     2.257000000     0.461000000
H     0.140000000     2.411000000    -0.998000000
O    -0.381000000    -0.376000000    -5.092000000
H     0.537000000    -0.611000000    -4.960000000
H    -0.439000000    -0.147000000    -6.019000000
O     2.389000000    -5.907000000    -1.574000000
H     2.643000000    -6.353000000    -2.381000000
H     2.956000000    -5.136000000    -1.537000000
O     3.307000000     2.045000000    -2.097000000
H     2.667000000     1.353000000    -1.930000000
H     3.226000000     2.632000000    -1.346000000
O    -0.700000000     5.471000000    -2.140000000
H    -0.851000000     6.297000000    -2.599000000
H    -0.747000000     4.804000000    -2.826000000
O    -1.973000000    -1.619000000     3.728000000
H    -2.716000000    -1.045000000     3.538000000
H    -1.477000000    -1.154000000     4.401000000
O    -0.408000000    -4.011000000    -0.609000000
H    -0.318000000    -3.181000000    -1.076000000
H     0.188000000    -3.933000000     0.136000000
O     4.620000000     2.733000000     2.665000000
H     4.733000000     1.810000000     2.437000000
H     3.671000000     2.856000000     2.699000000
O    -4.001000000     5.193000000    -3.316000000
H    -3.274000000     4.634000000    -3.040000000
H    -4.747000000     4.597000000    -3.387000000
O     6.066000000    -1.010000000     0.076000000
H     5.139000000    -0.999000000     0.315000000
H     6.067000000    -1.001000000    -0.881000000
O     2.300000000    -2.522000000     3.612000000
H     2.779000000    -2.589000000     2.785000000
H     1.543000000    -3.097000000     3.497000000
O     4.537000000    -3.431000000     1.278000000
H     3.970000000    -4.005000000     0.764000000
H     4.225000000    -2.547000000     1.081000000
O    -6.398000000     3.821000000     4.211000000
H    -5.625000000     3.358000000     3.887000000
H    -6.994000000     3.125000000     4.489000000
O     8.454000000    -1.720000000     1.546000000
H     8.280000000    -1.816000000     2.483000000
H     7.586000000    -1.690000000     1.144000000
O     2.119000000    -4.968000000     1.070000000
H     2.031000000    -5.506000000     0.284000000
H     1.236000000    -4.932000000     1.436000000
O    -3.933000000     0.035000000     1.913000000
H    -4.743000000    -0.448000000     2.078000000
H    -3.939000000     0.740000000     2.561000000
O     3.047000000     3.411000000     0.281000000
H     2.650000000     3.254000000     1.138000000
H     2.478000000     4.061000000    -0.131000000
O     7.348000000     1.623000000     1.459000000
H     7.638000000     1.060000000     0.741000000
H     6.698000000     1.098000000     1.927000000
O     0.835000000    -3.099000000    -3.709000000
H     1.468000000    -2.404000000    -3.888000000
H     1.359000000    -3.899000000    -3.680000000
O     2.143000000    -3.907000000     6.049000000
H     1.751000000    -4.748000000     5.815000000
H     2.212000000    -3.435000000     5.219000000
O    -4.665000000    -1.722000000    -1.090000000
H    -4.500000000    -2.358000000    -1.787000000
H    -3.971000000    -1.881000000    -0.451000000
O    -3.945000000     1.983000000    -2.326000000
H    -4.015000000     2.717000000    -1.716000000
H    -4.812000000     1.577000000    -2.312000000
O    -7.460000000    -2.370000000    -0.463000000
H    -7.610000000    -2.416000000     0.481000000
H    -6.639000000    -1.887000000    -0.552000000
O     2.113000000     3.607000000     2.796000000
H     2.444000000     3.559000000     3.693000000
H     1.587000000     4.407000000     2.778000000
O     3.706000000     3.107000000    -4.383000000
H     3.482000000     2.867000000    -3.484000000
H     3.797000000     2.270000000    -4.839000000
O    -2.847000000    -2.415000000     0.905000000
H    -2.053000000    -2.947000000     0.954000000
H    -2.656000000    -1.649000000     1.446000000
O     0.204000000    -0.404000000     5.151000000
H     1.050000000    -0.181000000     4.762000000
H    -0.199000000     0.441000000     5.349000000
O    -2.818000000    -2.148000000    -6.203000000
H    -2.385000000    -2.792000000    -5.643000000
H    -2.848000000    -1.352000000    -5.673000000
O     7.418000000    -4.602000000    -1.448000000
H     6.619000000    -4.205000000    -1.100000000
H     7.330000000    -4.522000000    -2.398000000
O    -1.980000000     4.634000000     2.381000000
H    -2.066000000     4.455000000     1.444000000
H    -2.872000000     4.572000000     2.720000000
O    -2.016000000     4.115000000    -0.255000000
H    -1.477000000     4.735000000    -0.747000000
H    -1.497000000     3.311000000    -0.235000000
O     3.075000000    -0.245000000     4.959000000
H     2.958000000    -1.178000000     4.780000000
H     3.675000000     0.057000000     4.276000000
O     5.337000000     0.005000000     2.675000000
H     5.939000000    -0.723000000     2.834000000
H     4.670000000    -0.359000000     2.093000000
O    -6.185000000     0.634000000    -1.834000000
H    -5.636000000    -0.149000000    -1.869000000
H    -6.461000000     0.692000000    -0.919000000
O     6.676000000    -1.325000000    -4.577000000
H     7.515000000    -1.140000000    -4.156000000
H     6.022000000    -0.959000000    -3.981000000
O    -1.299000000     3.342000000    -3.750000000
H    -1.995000000     2.708000000    -3.926000000
H    -1.097000000     3.719000000    -4.606000000
O    -0.145000000    -3.499000000     2.608000000
H    -0.513000000    -2.672000000     2.919000000
H    -0.734000000    -4.169000000     2.955000000
