158
-3030.93942
C    -0.685000000    -0.580000000     1.206000000
H    -1.205000000    -1.053000000     2.036000000
C    -1.149000000    -0.599000000    -0.139000000
H    -2.130000000    -1.013000000    -0.359000000
C    -0.341000000    -0.183000000    -1.141000000
H    -0.676000000    -0.331000000    -2.251000000
C     0.872000000     0.445000000    -0.906000000
H     1.417000000     0.910000000    -1.723000000
C     1.350000000     0.488000000     0.454000000
H     2.298000000     0.979000000     0.658000000
C     0.571000000    -0.026000000     1.418000000
C     0.995000000     0.194000000     2.899000000
O     0.376000000    -0.469000000     3.698000000
O     1.956000000     0.903000000     3.231000000
O    -3.892000000    -4.041000000    -5.085000000
H    -4.048000000    -3.647000000    -4.227000000
H    -3.131000000    -3.573000000    -5.429000000
O     0.727000000    -2.201000000    -5.663000000
H     0.050000000    -1.968000000    -6.298000000
H     1.294000000    -1.430000000    -5.624000000
O     2.658000000     3.302000000     4.144000000
H     1.923000000     3.553000000     4.703000000
H     2.374000000     2.489000000     3.725000000
O     1.570000000    -3.068000000     0.895000000
H     0.884000000    -3.508000000     1.398000000
H     1.664000000    -2.213000000     1.314000000
O     2.733000000     3.292000000    -1.083000000
H     3.402000000     2.610000000    -1.030000000
H     2.033000000     2.986000000    -0.506000000
O    -1.972000000     3.120000000    -3.886000000
H    -2.775000000     3.411000000    -4.319000000
H    -2.264000000     2.790000000    -3.037000000
O    -0.923000000    -0.528000000    -7.138000000
H    -1.185000000    -0.310000000    -8.033000000
H    -0.495000000     0.264000000    -6.814000000
O     1.283000000     3.469000000    -3.346000000
H     1.767000000     3.622000000    -2.534000000
H     0.442000000     3.112000000    -3.060000000
O    -2.203000000    -3.209000000    -7.039000000
H    -1.931000000    -2.296000000    -7.134000000
H    -2.729000000    -3.384000000    -7.820000000
O     4.814000000    -1.583000000    -1.020000000
H     4.684000000    -2.132000000    -0.247000000
H     5.667000000    -1.171000000    -0.881000000
O     2.441000000     2.223000000    -6.088000000
H     2.980000000     2.355000000    -5.308000000
H     2.547000000     1.296000000    -6.298000000
O     1.870000000    -0.436000000     6.167000000
H     1.501000000    -0.085000000     5.356000000
H     1.252000000    -1.116000000     6.436000000
O    -1.070000000     5.625000000    -2.894000000
H    -1.257000000     4.797000000    -3.337000000
H    -0.185000000     5.853000000    -3.176000000
O     4.077000000    -3.751000000     0.942000000
H     3.247000000    -3.409000000     0.611000000
H     3.843000000    -4.575000000     1.370000000
O    -2.922000000    -2.943000000     4.114000000
H    -2.280000000    -2.264000000     4.323000000
H    -3.770000000    -2.512000000     4.221000000
O     4.947000000     1.828000000     2.919000000
H     4.180000000     1.273000000     3.062000000
H     5.444000000     1.379000000     2.235000000
O     1.117000000    -3.117000000     4.082000000
H     0.471000000    -3.642000000     4.555000000
H     0.704000000    -2.259000000     3.985000000
O     3.940000000    -0.637000000     3.767000000
H     3.688000000    -1.132000000     4.546000000
H     3.194000000    -0.061000000     3.597000000
O    -0.756000000    -5.685000000     2.256000000
H    -0.325000000    -5.869000000     3.091000000
H    -0.430000000    -6.363000000     1.664000000
O    -2.604000000    -1.152000000    -4.141000000
H    -3.461000000    -0.906000000    -4.488000000
H    -1.992000000    -0.949000000    -4.849000000
O    -5.355000000    -1.367000000     4.119000000
H    -5.645000000    -1.631000000     4.993000000
H    -4.996000000    -0.488000000     4.242000000
O    -4.014000000    -4.951000000    -0.390000000
H    -3.444000000    -5.681000000    -0.630000000
H    -3.434000000    -4.328000000     0.048000000
O     2.854000000    -5.293000000     4.900000000
H     3.203000000    -5.603000000     4.065000000
H     2.585000000    -4.390000000     4.727000000
O    -1.009000000     2.753000000     0.585000000
H    -0.291000000     2.942000000     1.188000000
H    -0.897000000     1.829000000     0.362000000
O     4.228000000     5.446000000    -1.484000000
H     3.862000000     4.565000000    -1.413000000
H     3.465000000     6.017000000    -1.569000000
O     5.096000000     2.042000000     5.664000000
H     4.919000000     2.347000000     4.774000000
H     4.436000000     2.479000000     6.202000000
O    -3.297000000     2.835000000    -1.437000000
H    -2.559000000     2.844000000    -0.828000000
H    -3.764000000     2.024000000    -1.235000000
O    -5.333000000    -0.840000000     1.260000000
H    -5.096000000    -1.346000000     2.037000000
H    -6.171000000    -1.208000000     0.980000000
O    -1.378000000    -0.999000000     5.449000000
H    -0.601000000    -0.641000000     5.020000000
H    -1.182000000    -0.946000000     6.384000000
O    -4.486000000    -2.868000000    -2.206000000
H    -4.442000000    -3.570000000    -1.557000000
H    -3.785000000    -2.266000000    -1.955000000
O     4.456000000    -0.596000000     6.683000000
H     4.864000000     0.227000000     6.413000000
H     3.525000000    -0.472000000     6.502000000
O    -4.824000000     0.379000000    -5.101000000
H    -5.457000000    -0.251000000    -5.446000000
H    -5.305000000     0.853000000    -4.423000000
O     2.516000000     1.878000000     7.598000000
H     2.026000000     2.568000000     7.152000000
H     2.330000000     1.087000000     7.092000000
O    -2.235000000    -3.644000000     1.396000000
H    -2.347000000    -3.273000000     2.271000000
H    -1.703000000    -4.427000000     1.533000000
O     2.057000000    -3.344000000    -1.756000000
H     1.375000000    -2.886000000    -2.247000000
H     1.859000000    -3.155000000    -0.839000000
O     4.750000000     1.520000000    -4.540000000
H     4.012000000     1.487000000    -3.931000000
H     5.519000000     1.626000000    -3.980000000
O    -5.127000000     0.947000000    -0.550000000
H    -5.234000000     0.227000000     0.071000000
H    -5.961000000     1.416000000    -0.518000000
O     4.834000000     4.464000000     3.020000000
H     4.003000000     4.167000000     3.390000000
H     5.280000000     3.660000000     2.756000000
O    -0.688000000    -4.564000000     5.640000000
H    -1.513000000    -4.332000000     5.214000000
H    -0.923000000    -4.708000000     6.557000000
O    -0.184000000     1.867000000    -6.090000000
H     0.752000000     2.064000000    -6.058000000
H    -0.504000000     2.083000000    -5.214000000
O     0.785000000     3.802000000     6.091000000
H     0.487000000     4.511000000     5.520000000
H     0.150000000     3.099000000     5.950000000
O    -0.204000000    -3.220000000    -3.293000000
H    -1.076000000    -3.343000000    -3.668000000
H     0.294000000    -2.782000000    -3.983000000
O    -0.904000000     2.024000000     4.941000000
H    -1.686000000     2.542000000     4.748000000
H    -1.182000000     1.116000000     4.822000000
O     4.506000000     1.204000000    -1.374000000
H     5.447000000     1.031000000    -1.343000000
H     4.128000000     0.408000000    -1.747000000
O    -4.210000000     5.300000000    -1.863000000
H    -4.039000000     4.359000000    -1.823000000
H    -3.347000000     5.695000000    -1.989000000
O     1.299000000     3.610000000     1.620000000
H     2.146000000     3.365000000     1.990000000
H     1.290000000     4.567000000     1.653000000
O     2.757000000    -0.408000000    -6.584000000
H     3.092000000    -0.572000000    -7.466000000
H     3.425000000    -0.771000000    -6.003000000
O     6.598000000    -1.721000000     3.783000000
H     5.690000000    -1.422000000     3.834000000
H     6.532000000    -2.673000000     3.708000000
