158
-3050.69266
C    -0.854000000     1.088000000     0.593000000
H    -1.539000000     1.840000000     0.974000000
C    -0.686000000     0.790000000    -0.773000000
H    -1.193000000     1.459000000    -1.463000000
C     0.088000000    -0.278000000    -1.227000000
H     0.175000000    -0.343000000    -2.300000000
C     0.778000000    -1.031000000    -0.275000000
H     1.477000000    -1.814000000    -0.557000000
C     0.568000000    -0.800000000     1.094000000
H     1.128000000    -1.406000000     1.803000000
C    -0.169000000     0.339000000     1.558000000
C    -0.287000000     0.526000000     3.020000000
O    -0.508000000     1.640000000     3.479000000
O    -0.180000000    -0.428000000     3.791000000
O    -4.326000000    -2.923000000    -5.982000000
H    -3.664000000    -2.660000000    -5.343000000
H    -3.822000000    -3.198000000    -6.749000000
O     2.249000000    -5.682000000    -0.565000000
H     2.888000000    -4.969000000    -0.526000000
H     1.600000000    -5.457000000     0.101000000
O     3.043000000    -1.895000000     3.744000000
H     2.755000000    -1.260000000     4.400000000
H     2.434000000    -2.628000000     3.837000000
O    -3.020000000     4.312000000     4.532000000
H    -3.590000000     4.993000000     4.889000000
H    -3.569000000     3.529000000     4.507000000
O    -0.639000000     4.782000000    -1.349000000
H    -0.221000000     5.643000000    -1.342000000
H    -1.066000000     4.716000000    -0.494000000
O     6.064000000    -0.131000000    -1.922000000
H     5.726000000     0.320000000    -1.149000000
H     5.454000000    -0.856000000    -2.062000000
O    -0.112000000     5.318000000    -4.835000000
H     0.187000000     4.741000000    -4.132000000
H     0.640000000     5.392000000    -5.421000000
O     0.196000000    -4.635000000    -2.492000000
H     0.821000000    -4.950000000    -1.839000000
H    -0.528000000    -5.260000000    -2.452000000
O    -1.914000000     3.617000000     7.313000000
H    -2.064000000     4.547000000     7.479000000
H    -1.766000000     3.563000000     6.369000000
O     4.490000000    -2.052000000    -2.954000000
H     3.635000000    -2.062000000    -3.386000000
H     4.883000000    -2.894000000    -3.183000000
O     1.382000000     3.649000000    -2.804000000
H     2.159000000     3.415000000    -2.297000000
H     0.746000000     3.937000000    -2.148000000
O     2.085000000     2.646000000     5.789000000
H     2.490000000     3.357000000     6.286000000
H     1.370000000     3.066000000     5.311000000
O    -3.888000000    -2.163000000    -2.441000000
H    -4.559000000    -2.843000000    -2.498000000
H    -4.351000000    -1.352000000    -2.653000000
O    -0.476000000     3.861000000     4.894000000
H    -0.539000000     3.089000000     4.331000000
H    -1.322000000     4.298000000     4.797000000
O     4.181000000    -3.746000000    -0.455000000
H     4.523000000    -3.173000000    -1.142000000
H     3.829000000    -3.147000000     0.203000000
O     0.647000000    -4.554000000     1.523000000
H    -0.289000000    -4.753000000     1.541000000
H     0.812000000    -4.106000000     2.353000000
O    -1.370000000    -2.178000000     5.466000000
H    -2.061000000    -1.617000000     5.819000000
H    -0.946000000    -1.642000000     4.795000000
O     0.985000000    -2.395000000     7.106000000
H     1.199000000    -1.499000000     6.843000000
H     0.032000000    -2.446000000     7.027000000
O    -0.592000000    -3.662000000    -5.203000000
H    -0.675000000    -4.050000000    -4.332000000
H    -1.279000000    -2.995000000    -5.234000000
O    -2.024000000    -4.737000000     1.456000000
H    -2.124000000    -3.984000000     0.873000000
H    -2.480000000    -4.482000000     2.257000000
O     1.126000000     6.199000000     3.680000000
H     0.755000000     6.974000000     4.102000000
H     1.060000000     5.511000000     4.343000000
O    -4.260000000     0.255000000     3.133000000
H    -3.820000000     0.735000000     3.834000000
H    -3.812000000    -0.590000000     3.103000000
O    -3.029000000     3.217000000    -1.680000000
H    -2.320000000     3.834000000    -1.500000000
H    -3.175000000     2.771000000    -0.846000000
O    -2.060000000    -2.441000000    -0.010000000
H    -1.212000000    -2.223000000    -0.397000000
H    -2.688000000    -2.313000000    -0.721000000
O     0.971000000    -3.917000000     4.448000000
H     0.040000000    -4.095000000     4.582000000
H     1.398000000    -4.271000000     5.228000000
O     1.512000000     2.877000000     0.419000000
H     1.382000000     3.299000000     1.268000000
H     0.803000000     2.236000000     0.359000000
O    -4.464000000     0.391000000    -5.355000000
H    -5.036000000    -0.258000000    -5.764000000
H    -4.648000000     0.316000000    -4.419000000
O    -4.648000000     3.280000000    -4.371000000
H    -4.626000000     2.470000000    -4.881000000
H    -4.471000000     3.002000000    -3.472000000
O    -2.072000000     4.338000000     1.316000000
H    -2.139000000     3.778000000     2.088000000
H    -2.589000000     5.113000000     1.536000000
O    -1.708000000    -4.907000000     4.264000000
H    -2.239000000    -4.464000000     4.925000000
H    -1.749000000    -5.832000000     4.504000000
O    -2.432000000    -1.248000000    -4.861000000
H    -3.209000000    -0.700000000    -4.973000000
H    -2.269000000    -1.242000000    -3.917000000
O     3.935000000     3.746000000    -0.330000000
H     4.400000000     2.939000000    -0.112000000
H     3.039000000     3.595000000    -0.028000000
O    -5.921000000     0.996000000     0.747000000
H    -5.332000000     0.885000000     1.494000000
H    -6.233000000     0.112000000     0.554000000
O    -2.573000000    -1.836000000     2.697000000
H    -2.179000000    -1.488000000     1.896000000
H    -1.830000000    -2.159000000     3.208000000
O     5.709000000     0.716000000    -4.517000000
H     4.789000000     0.909000000    -4.696000000
H     5.723000000     0.446000000    -3.599000000
O     2.188000000    -2.623000000    -4.180000000
H     1.563000000    -2.190000000    -4.762000000
H     1.648000000    -3.181000000    -3.620000000
O     2.867000000     1.306000000    -4.956000000
H     2.450000000     1.951000000    -4.385000000
H     2.175000000     0.674000000    -5.151000000
O     1.796000000    -0.022000000     5.556000000
H     1.262000000    -0.172000000     4.776000000
H     2.074000000     0.891000000     5.484000000
O     0.607000000    -0.841000000    -5.416000000
H     0.580000000    -1.214000000    -6.297000000
H    -0.313000000    -0.722000000    -5.178000000
O    -2.227000000     1.471000000    -6.802000000
H    -3.117000000     1.193000000    -6.582000000
H    -1.835000000     1.705000000    -5.961000000
O    -4.354000000     0.917000000     7.351000000
H    -3.630000000     0.861000000     6.728000000
H    -3.990000000     1.391000000     8.099000000
O    -2.183000000     0.865000000     5.803000000
H    -1.592000000     0.616000000     5.093000000
H    -1.603000000     1.068000000     6.537000000
O     5.936000000    -2.257000000     4.178000000
H     5.023000000    -1.989000000     4.286000000
H     6.066000000    -2.933000000     4.843000000
O     2.487000000    -6.730000000     2.185000000
H     1.860000000    -7.191000000     1.628000000
H     2.250000000    -5.807000000     2.100000000
O    -0.281000000     1.165000000     7.590000000
H     0.459000000     0.992000000     8.172000000
H    -0.035000000     1.962000000     7.120000000
O     4.358000000    -2.091000000    -5.841000000
H     3.866000000    -2.719000000    -5.312000000
H     4.809000000    -1.540000000    -5.201000000
O    -1.471000000     2.253000000    -4.202000000
H    -0.635000000     2.683000000    -4.383000000
H    -1.890000000     2.812000000    -3.547000000
O     3.806000000    -1.440000000     0.958000000
H     3.708000000    -1.524000000     1.906000000
H     3.027000000    -0.957000000     0.679000000
