158
-3055.97576
C    -0.986000000     0.782000000     0.713000000
H    -1.783000000     1.391000000     1.131000000
C    -0.638000000     1.041000000    -0.626000000
H    -1.096000000     1.851000000    -1.189000000
C     0.361000000     0.278000000    -1.155000000
H     0.600000000     0.409000000    -2.208000000
C     1.055000000    -0.719000000    -0.390000000
H     1.830000000    -1.296000000    -0.887000000
C     0.592000000    -1.062000000     0.875000000
H     1.065000000    -1.844000000     1.464000000
C    -0.377000000    -0.302000000     1.450000000
C    -0.837000000    -0.512000000     2.901000000
O    -1.679000000     0.203000000     3.389000000
O    -0.210000000    -1.331000000     3.584000000
O    -4.960000000     3.513000000     3.414000000
H    -5.573000000     2.988000000     3.929000000
H    -4.100000000     3.144000000     3.616000000
O     1.916000000     4.036000000    -5.027000000
H     1.091000000     3.760000000    -4.627000000
H     1.824000000     3.802000000    -5.951000000
O     2.383000000    -4.486000000     0.455000000
H     1.581000000    -4.385000000    -0.057000000
H     2.077000000    -4.622000000     1.353000000
O     3.953000000    -1.175000000     3.364000000
H     3.915000000    -0.863000000     4.268000000
H     3.082000000    -1.535000000     3.198000000
O    -1.576000000     2.801000000     6.431000000
H    -1.124000000     3.425000000     6.999000000
H    -1.744000000     2.044000000     6.992000000
O    -2.732000000     4.647000000    -4.071000000
H    -2.831000000     5.563000000    -3.813000000
H    -2.645000000     4.675000000    -5.024000000
O     3.382000000    -2.645000000    -3.184000000
H     4.308000000    -2.884000000    -3.212000000
H     3.265000000    -2.053000000    -3.926000000
O    -2.492000000     4.595000000     0.032000000
H    -2.334000000     5.311000000    -0.583000000
H    -3.372000000     4.760000000     0.371000000
O     1.093000000    -6.489000000    -1.974000000
H     0.533000000    -6.413000000    -1.201000000
H     1.442000000    -5.607000000    -2.105000000
O    -3.410000000     0.509000000     8.226000000
H    -2.960000000     0.047000000     8.933000000
H    -3.298000000    -0.056000000     7.462000000
O     1.072000000    -3.687000000    -2.238000000
H     0.418000000    -3.031000000    -2.479000000
H     1.908000000    -3.298000000    -2.497000000
O     3.714000000     3.419000000    -1.652000000
H     3.106000000     2.950000000    -1.081000000
H     3.506000000     4.343000000    -1.517000000
O    -7.186000000     0.924000000     1.235000000
H    -6.424000000     0.365000000     1.385000000
H    -7.606000000     0.993000000     2.092000000
O     2.582000000     1.087000000     6.061000000
H     2.122000000     1.434000000     6.826000000
H     3.121000000     1.816000000     5.755000000
O    -2.335000000    -1.511000000    -0.853000000
H    -2.559000000    -1.114000000    -1.695000000
H    -1.407000000    -1.308000000    -0.732000000
O    -0.595000000     2.545000000     3.911000000
H    -0.979000000     1.684000000     3.744000000
H    -0.780000000     2.714000000     4.835000000
O    -5.184000000    -1.831000000    -0.635000000
H    -4.229000000    -1.795000000    -0.684000000
H    -5.462000000    -2.056000000    -1.523000000
O     4.372000000    -2.432000000    -0.239000000
H     4.106000000    -2.187000000    -1.124000000
H     3.775000000    -3.140000000     0.004000000
O    -0.996000000    -4.951000000     0.027000000
H    -1.009000000    -4.770000000     0.967000000
H    -1.428000000    -4.194000000    -0.369000000
O     3.459000000    -1.404000000    -6.356000000
H     3.888000000    -0.636000000    -5.979000000
H     2.596000000    -1.089000000    -6.624000000
O    -1.579000000    -3.129000000     5.273000000
H    -0.927000000    -3.686000000     5.698000000
H    -1.063000000    -2.498000000     4.770000000
O     1.101000000    -1.813000000     8.393000000
H     0.856000000    -2.699000000     8.663000000
H     1.259000000    -1.885000000     7.452000000
O    -0.912000000    -4.642000000    -4.931000000
H    -0.127000000    -4.402000000    -4.438000000
H    -1.632000000    -4.244000000    -4.443000000
O     2.074000000     3.305000000     3.893000000
H     1.766000000     4.164000000     3.605000000
H     1.283000000     2.767000000     3.931000000
O    -4.298000000     0.142000000     1.799000000
H    -3.753000000     0.562000000     2.465000000
H    -4.191000000    -0.796000000     1.960000000
O    -3.500000000     2.228000000    -2.972000000
H    -3.462000000     3.180000000    -3.070000000
H    -3.835000000     2.092000000    -2.086000000
O    -3.344000000    -3.009000000     1.339000000
H    -3.487000000    -3.685000000     0.677000000
H    -3.184000000    -2.211000000     0.835000000
O     1.580000000    -4.232000000     3.667000000
H     0.683000000    -3.904000000     3.606000000
H     1.976000000    -3.720000000     4.372000000
O     0.929000000     3.499000000    -0.725000000
H     0.798000000     3.840000000     0.159000000
H     0.507000000     2.640000000    -0.715000000
O    -3.585000000    -0.609000000    -2.937000000
H    -4.360000000    -0.683000000    -3.494000000
H    -3.292000000     0.295000000    -3.054000000
O    -0.098000000     4.084000000     1.804000000
H    -0.250000000     3.638000000     2.637000000
H    -0.973000000     4.214000000     1.438000000
O    -1.194000000    -4.888000000     2.725000000
H    -2.143000000    -4.828000000     2.835000000
H    -0.986000000    -5.799000000     2.935000000
O    -2.925000000    -3.184000000    -3.611000000
H    -3.652000000    -3.660000000    -4.012000000
H    -3.290000000    -2.326000000    -3.395000000
O     4.373000000     1.799000000     3.658000000
H     4.216000000     1.043000000     3.092000000
H     3.745000000     2.457000000     3.359000000
O     5.374000000     0.867000000    -2.589000000
H     5.858000000     0.653000000    -1.792000000
H     5.094000000     1.774000000    -2.463000000
O     0.970000000    -0.532000000    -6.659000000
H     0.500000000    -1.278000000    -6.286000000
H     0.672000000     0.219000000    -6.146000000
O    -4.860000000     1.089000000    -0.772000000
H    -5.127000000     0.203000000    -1.018000000
H    -4.633000000     1.022000000     0.155000000
O    -4.578000000    -2.399000000     3.689000000
H    -4.009000000    -2.774000000     3.017000000
H    -3.982000000    -1.935000000     4.277000000
O    -0.381000000    -1.925000000    -3.884000000
H    -0.288000000    -1.029000000    -3.561000000
H    -1.325000000    -2.050000000    -3.977000000
O     4.258000000     1.016000000    -4.901000000
H     4.828000000     0.899000000    -4.142000000
H     3.785000000     1.829000000    -4.723000000
O    -5.070000000     4.965000000     1.002000000
H    -5.791000000     5.590000000     0.923000000
H    -5.308000000     4.419000000     1.752000000
O     1.681000000    -1.461000000     5.595000000
H     0.978000000    -1.451000000     4.946000000
H     1.834000000    -0.539000000     5.798000000
O    -0.805000000     0.695000000    -4.612000000
H    -1.596000000     0.785000000    -5.144000000
H    -0.729000000     1.531000000    -4.152000000
O    -2.497000000    -0.493000000     5.928000000
H    -2.349000000    -0.074000000     5.080000000
H    -2.366000000    -1.426000000     5.760000000
O    -3.733000000    -4.038000000     6.664000000
H    -3.323000000    -4.593000000     7.326000000
H    -3.030000000    -3.843000000     6.045000000
O     1.584000000    -6.769000000     2.968000000
H     1.179000000    -6.495000000     2.145000000
H     1.737000000    -5.953000000     3.443000000
O    -0.117000000     3.286000000    -3.169000000
H     0.314000000     3.690000000    -2.416000000
H    -0.959000000     3.737000000    -3.233000000
O     6.110000000    -1.718000000     1.559000000
H     5.576000000    -2.137000000     0.884000000
H     5.476000000    -1.395000000     2.200000000
