158
-3027.43215
C    -0.631000000     1.294000000     0.220000000
H    -1.169000000     2.238000000     0.217000000
C    -0.485000000     0.695000000    -1.017000000
H    -0.803000000     1.147000000    -1.953000000
C     0.226000000    -0.534000000    -1.092000000
H     0.567000000    -0.963000000    -2.014000000
C     0.482000000    -1.210000000     0.074000000
H     1.011000000    -2.148000000    -0.078000000
C     0.289000000    -0.626000000     1.348000000
H     0.651000000    -1.057000000     2.278000000
C    -0.310000000     0.623000000     1.375000000
C    -0.625000000     1.292000000     2.695000000
O    -0.667000000     2.547000000     2.689000000
O    -0.888000000     0.730000000     3.679000000
O    -5.585000000     3.575000000     4.901000000
H    -6.043000000     4.002000000     4.177000000
H    -4.732000000     3.338000000     4.539000000
O    -4.221000000    -3.743000000    -4.918000000
H    -3.521000000    -3.235000000    -4.509000000
H    -3.897000000    -3.931000000    -5.799000000
O    -0.198000000    -4.615000000    -0.334000000
H     0.530000000    -5.214000000    -0.504000000
H    -0.025000000    -4.271000000     0.542000000
O     1.968000000    -3.033000000     4.753000000
H     1.985000000    -2.081000000     4.661000000
H     1.054000000    -3.238000000     4.954000000
O    -2.611000000     4.928000000     2.091000000
H    -3.518000000     5.221000000     2.177000000
H    -2.445000000     4.425000000     2.888000000
O    -0.946000000     4.433000000    -4.109000000
H    -0.649000000     5.261000000    -4.489000000
H    -0.777000000     4.526000000    -3.172000000
O     5.468000000    -1.028000000    -0.242000000
H     4.695000000    -0.470000000    -0.160000000
H     5.214000000    -1.696000000    -0.878000000
O     3.705000000     3.672000000    -5.463000000
H     2.942000000     3.531000000    -4.903000000
H     4.455000000     3.552000000    -4.880000000
O    -0.271000000    -3.942000000    -3.134000000
H    -0.380000000    -4.004000000    -2.185000000
H    -1.036000000    -3.448000000    -3.431000000
O     4.630000000    -2.370000000    -2.269000000
H     3.950000000    -2.435000000    -2.940000000
H     5.451000000    -2.476000000    -2.749000000
O     1.880000000     3.771000000    -3.573000000
H     1.878000000     3.280000000    -2.751000000
H     0.966000000     3.764000000    -3.858000000
O     3.751000000    -1.008000000     2.814000000
H     3.193000000    -0.406000000     3.305000000
H     4.208000000    -1.514000000     3.486000000
O    -3.292000000     1.858000000    -2.408000000
H    -3.439000000     2.545000000    -1.758000000
H    -3.706000000     1.081000000    -2.034000000
O     0.926000000     1.301000000     7.161000000
H     1.199000000     0.577000000     7.725000000
H     0.875000000     2.055000000     7.748000000
O     3.733000000     0.839000000     0.751000000
H     4.275000000     0.824000000     1.540000000
H     2.903000000     0.448000000     1.024000000
O    -1.649000000     3.848000000     6.509000000
H    -0.692000000     3.878000000     6.514000000
H    -1.905000000     4.472000000     5.831000000
O     2.547000000    -5.080000000    -0.890000000
H     3.000000000    -5.130000000    -1.732000000
H     3.141000000    -4.584000000    -0.327000000
O     0.961000000    -4.765000000     2.687000000
H     0.449000000    -4.215000000     3.279000000
H     1.815000000    -4.335000000     2.638000000
O    -1.712000000     7.198000000     1.081000000
H    -2.283000000     7.909000000     1.373000000
H    -2.164000000     6.400000000     1.355000000
O    -2.149000000     1.077000000    -6.754000000
H    -2.610000000     0.444000000    -6.203000000
H    -2.251000000     1.911000000    -6.296000000
O    -1.071000000    -2.392000000     6.861000000
H    -1.837000000    -2.908000000     7.113000000
H    -0.324000000    -2.941000000     7.096000000
O    -0.268000000    -6.286000000    -4.515000000
H    -0.055000000    -5.800000000    -3.718000000
H    -0.939000000    -5.756000000    -4.946000000
O    -2.966000000    -4.729000000    -0.528000000
H    -2.111000000    -5.004000000    -0.195000000
H    -2.875000000    -3.788000000    -0.674000000
O    -1.001000000     6.297000000     4.714000000
H    -1.825000000     6.686000000     4.422000000
H    -0.441000000     7.046000000     4.918000000
O    -0.012000000     4.685000000     1.269000000
H    -0.197000000     3.889000000     1.767000000
H    -0.770000000     5.248000000     1.426000000
O    -2.930000000     3.025000000     4.126000000
H    -1.999000000     2.916000000     3.934000000
H    -3.192000000     2.193000000     4.520000000
O    -3.451000000     3.668000000    -4.296000000
H    -2.586000000     4.077000000    -4.318000000
H    -3.334000000     2.889000000    -3.751000000
O    -2.846000000    -1.696000000    -0.784000000
H    -2.166000000    -1.068000000    -1.029000000
H    -3.655000000    -1.184000000    -0.778000000
O    -1.083000000    -3.234000000     4.195000000
H    -1.051000000    -2.574000000     4.887000000
H    -1.462000000    -2.776000000     3.445000000
O     2.137000000     2.425000000     3.745000000
H     1.902000000     3.204000000     4.250000000
H     1.307000000     1.968000000     3.610000000
O     3.101000000     4.808000000     0.918000000
H     3.237000000     4.391000000     0.068000000
H     2.232000000     4.516000000     1.192000000
O    -3.557000000     3.562000000    -0.212000000
H    -3.340000000     3.944000000     0.639000000
H    -4.479000000     3.781000000    -0.344000000
O     1.829000000     2.509000000    -1.200000000
H     1.029000000     2.020000000    -1.009000000
H     2.529000000     1.983000000    -0.814000000
O     1.518000000     4.865000000     4.742000000
H     0.570000000     4.993000000     4.714000000
H     1.846000000     5.611000000     5.243000000
O    -3.845000000     0.367000000     3.384000000
H    -2.895000000     0.330000000     3.276000000
H    -4.059000000    -0.416000000     3.891000000
O    -2.583000000    -2.526000000     1.928000000
H    -3.528000000    -2.556000000     2.076000000
H    -2.492000000    -2.253000000     1.015000000
O     2.248000000    -2.488000000    -3.934000000
H     1.770000000    -1.840000000    -4.453000000
H     1.641000000    -3.224000000    -3.852000000
O     1.322000000    -0.265000000     4.723000000
H     0.412000000     0.027000000     4.684000000
H     1.721000000     0.283000000     5.399000000
O    -1.775000000    -1.721000000    -4.678000000
H    -2.368000000    -0.973000000    -4.602000000
H    -0.911000000    -1.329000000    -4.803000000
O    -1.035000000     4.853000000    -1.403000000
H    -0.555000000     5.186000000    -0.644000000
H    -1.610000000     4.177000000    -1.045000000
O    -1.437000000    -4.238000000    -6.139000000
H    -0.512000000    -4.481000000    -6.185000000
H    -1.434000000    -3.357000000    -5.764000000
O    -5.797000000     1.218000000     1.759000000
H    -5.104000000     1.181000000     2.418000000
H    -5.349000000     1.049000000     0.930000000
O    -1.901000000     0.141000000     5.889000000
H    -1.698000000     0.308000000     4.969000000
H    -1.215000000    -0.461000000     6.180000000
O    -4.083000000    -1.681000000     5.558000000
H    -3.583000000    -0.933000000     5.886000000
H    -4.083000000    -2.305000000     6.283000000
O    -2.856000000     1.827000000     7.892000000
H    -2.620000000     1.148000000     7.260000000
H    -2.407000000     2.612000000     7.578000000
O     3.036000000     0.734000000    -4.476000000
H     2.827000000     1.368000000    -3.790000000
H     3.969000000     0.553000000    -4.359000000
O     0.812000000    -0.398000000    -5.436000000
H     1.194000000    -0.454000000    -6.312000000
H     1.507000000    -0.020000000    -4.896000000
O     3.478000000    -3.461000000     1.244000000
H     4.317000000    -3.884000000     1.428000000
H     3.561000000    -2.588000000     1.629000000
