158
-3032.56739
C    -1.026000000     0.994000000     0.355000000
H    -1.819000000     1.735000000     0.411000000
C    -0.513000000     0.796000000    -0.913000000
H    -0.860000000     1.447000000    -1.712000000
C     0.530000000    -0.045000000    -1.088000000
H     1.009000000    -0.101000000    -2.089000000
C     0.889000000    -0.863000000    -0.031000000
H     1.701000000    -1.561000000    -0.218000000
C     0.274000000    -0.824000000     1.205000000
H     0.598000000    -1.511000000     1.983000000
C    -0.685000000     0.168000000     1.435000000
C    -1.287000000     0.299000000     2.787000000
O    -2.316000000     0.876000000     2.866000000
O    -0.860000000    -0.413000000     3.646000000
O    -6.231000000     3.655000000     1.736000000
H    -6.842000000     3.873000000     2.440000000
H    -5.692000000     2.950000000     2.096000000
O     1.879000000     1.109000000    -5.069000000
H     1.199000000     1.456000000    -4.492000000
H     1.878000000     1.700000000    -5.822000000
O     2.601000000    -4.284000000     1.946000000
H     2.025000000    -4.407000000     1.192000000
H     2.005000000    -4.168000000     2.686000000
O     3.522000000    -1.044000000     4.433000000
H     3.351000000    -1.608000000     3.678000000
H     2.655000000    -0.843000000     4.784000000
O    -2.813000000     3.448000000     5.416000000
H    -3.439000000     4.137000000     5.637000000
H    -3.244000000     2.637000000     5.686000000
O    -3.006000000     3.971000000    -5.186000000
H    -3.572000000     3.329000000    -4.758000000
H    -2.988000000     3.700000000    -6.104000000
O     4.558000000    -4.698000000    -1.327000000
H     5.328000000    -4.966000000    -1.829000000
H     4.007000000    -4.238000000    -1.961000000
O    -2.517000000     3.330000000    -2.018000000
H    -1.944000000     3.978000000    -1.608000000
H    -3.395000000     3.559000000    -1.714000000
O     1.971000000    -6.302000000    -2.183000000
H     2.835000000    -6.714000000    -2.159000000
H     2.114000000    -5.472000000    -2.638000000
O    -1.898000000     1.777000000     8.492000000
H    -1.063000000     1.775000000     8.960000000
H    -1.670000000     1.528000000     7.596000000
O     2.722000000    -3.837000000    -3.037000000
H     3.016000000    -3.217000000    -3.704000000
H     1.775000000    -3.705000000    -2.988000000
O     3.428000000     1.811000000    -1.051000000
H     2.900000000     1.807000000    -0.253000000
H     4.043000000     2.533000000    -0.928000000
O     5.815000000     0.371000000     1.271000000
H     5.618000000     1.246000000     1.604000000
H     4.958000000    -0.006000000     1.069000000
O    -0.321000000     2.459000000     6.121000000
H     0.111000000     3.269000000     6.390000000
H    -1.249000000     2.689000000     6.068000000
O    -2.604000000    -3.042000000    -0.376000000
H    -2.970000000    -2.763000000    -1.215000000
H    -1.702000000    -2.719000000    -0.389000000
O     6.806000000    -0.629000000    -1.248000000
H     6.881000000    -0.091000000    -0.460000000
H     5.895000000    -0.925000000    -1.250000000
O    -2.290000000     3.810000000     2.454000000
H    -2.493000000     2.875000000     2.487000000
H    -2.475000000     4.126000000     3.338000000
O     0.610000000    -4.890000000    -0.235000000
H    -0.291000000    -5.211000000    -0.283000000
H     1.070000000    -5.363000000    -0.929000000
O    -3.163000000    -2.106000000     4.137000000
H    -2.643000000    -2.904000000     4.039000000
H    -2.678000000    -1.443000000     3.647000000
O     0.761000000    -1.591000000     7.826000000
H     0.858000000    -2.421000000     7.360000000
H     0.609000000    -0.945000000     7.136000000
O     0.582000000    -5.383000000    -6.012000000
H     0.098000000    -5.803000000    -5.300000000
H     0.501000000    -4.446000000    -5.837000000
O    -4.776000000     1.417000000     2.042000000
H    -4.426000000     0.983000000     1.264000000
H    -4.094000000     1.309000000     2.705000000
O    -4.008000000     1.196000000    -3.020000000
H    -3.377000000     1.577000000    -2.410000000
H    -4.758000000     0.960000000    -2.473000000
O     0.253000000    -3.049000000     3.795000000
H    -0.044000000    -2.153000000     3.957000000
H     0.689000000    -3.306000000     4.607000000
O     2.512000000     1.568000000     2.080000000
H     2.014000000     2.370000000     2.241000000
H     1.847000000     0.908000000     1.888000000
O     0.687000000     3.527000000     2.963000000
H     0.211000000     3.365000000     3.777000000
H     0.061000000     3.991000000     2.407000000
O    -1.900000000    -4.482000000     3.315000000
H    -0.945000000    -4.448000000     3.377000000
H    -2.096000000    -5.402000000     3.137000000
O    -0.791000000    -2.130000000    -5.064000000
H    -1.374000000    -2.783000000    -5.450000000
H    -1.209000000    -1.291000000    -5.255000000
O    -3.794000000     5.508000000     0.927000000
H    -4.640000000     5.145000000     0.667000000
H    -3.352000000     4.787000000     1.376000000
O     3.260000000    -0.182000000    -3.218000000
H     3.333000000     0.526000000    -2.577000000
H     2.753000000     0.197000000    -3.936000000
O    -7.588000000     0.679000000     2.578000000
H    -6.770000000     1.176000000     2.581000000
H    -7.801000000     0.561000000     3.504000000
O     3.849000000    -2.928000000    -6.813000000
H     4.321000000    -2.508000000    -6.094000000
H     2.959000000    -2.579000000    -6.753000000
O     1.821000000    -1.783000000    -5.581000000
H     1.623000000    -0.852000000    -5.679000000
H     1.003000000    -2.170000000    -5.271000000
O    -5.994000000    -2.294000000     3.375000000
H    -5.187000000    -1.846000000     3.119000000
H    -5.977000000    -2.291000000     4.332000000
O     5.171000000    -1.699000000    -4.696000000
H     4.620000000    -1.350000000    -3.996000000
H     6.060000000    -1.440000000    -4.452000000
O    -1.677000000     5.756000000    -0.827000000
H    -2.302000000     5.641000000    -0.111000000
H    -1.355000000     6.651000000    -0.722000000
O     0.088000000    -2.852000000    -2.628000000
H     0.012000000    -2.005000000    -2.189000000
H    -0.187000000    -2.681000000    -3.529000000
O     4.045000000     0.283000000    -6.428000000
H     4.219000000    -0.617000000    -6.154000000
H     3.387000000     0.599000000    -5.808000000
O    -5.414000000     2.727000000    -0.642000000
H    -5.780000000     2.889000000     0.227000000
H    -5.945000000     2.013000000    -0.996000000
O     2.439000000     3.664000000    -3.113000000
H     1.542000000     3.374000000    -3.283000000
H     2.875000000     2.893000000    -2.750000000
O     0.922000000     0.051000000     5.509000000
H     0.263000000    -0.066000000     4.824000000
H     0.737000000     0.917000000     5.874000000
O    -1.997000000     0.509000000    -5.278000000
H    -2.428000000     0.587000000    -6.129000000
H    -2.683000000     0.713000000    -4.643000000
O    -2.717000000     0.412000000     5.843000000
H    -2.685000000     0.274000000     4.896000000
H    -3.160000000    -0.366000000     6.183000000
O    -4.097000000    -4.124000000     6.033000000
H    -4.688000000    -4.771000000     5.647000000
H    -3.911000000    -3.513000000     5.320000000
O     0.237000000    -6.864000000     2.624000000
H     0.181000000    -5.956000000     2.326000000
H    -0.129000000    -7.375000000     1.902000000
O    -4.592000000     2.111000000     7.102000000
H    -4.030000000     1.365000000     6.896000000
H    -5.444000000     1.722000000     7.298000000
O    -0.398000000     2.835000000    -3.935000000
H    -0.933000000     3.187000000    -3.223000000
H    -0.986000000     2.814000000    -4.689000000
O     4.549000000    -2.874000000     0.679000000
H     4.749000000    -3.581000000     0.064000000
H     3.839000000    -3.220000000     1.219000000
