158
-3009.23557
C    -0.825000000     0.151000000     1.206000000
H    -1.517000000     0.201000000     2.043000000
C    -1.288000000    -0.127000000    -0.050000000
H    -2.372000000    -0.191000000    -0.099000000
C    -0.432000000    -0.189000000    -1.125000000
H    -0.858000000    -0.264000000    -2.143000000
C     0.926000000     0.024000000    -0.889000000
H     1.623000000    -0.028000000    -1.721000000
C     1.431000000     0.102000000     0.359000000
H     2.507000000     0.015000000     0.479000000
C     0.538000000     0.212000000     1.442000000
C     1.032000000     0.243000000     2.835000000
O     0.363000000     0.216000000     3.804000000
O     2.175000000     0.620000000     3.111000000
O     0.525000000    -1.794000000    -7.498000000
H     1.161000000    -1.616000000    -8.190000000
H    -0.327000000    -1.679000000    -7.920000000
O     2.383000000     3.278000000     2.451000000
H     1.470000000     3.390000000     2.716000000
H     2.546000000     2.339000000     2.541000000
O     0.758000000    -2.886000000    -0.159000000
H    -0.077000000    -3.202000000     0.186000000
H     0.603000000    -1.961000000    -0.351000000
O     5.510000000     2.541000000    -1.992000000
H     6.438000000     2.690000000    -1.808000000
H     5.049000000     3.041000000    -1.318000000
O    -2.900000000     2.402000000    -7.067000000
H    -3.180000000     2.713000000    -6.206000000
H    -3.514000000     1.700000000    -7.280000000
O    -3.754000000    -2.681000000    -6.850000000
H    -2.922000000    -2.218000000    -6.747000000
H    -4.338000000    -2.267000000    -6.214000000
O     3.043000000    -4.047000000    -1.230000000
H     2.418000000    -3.624000000    -0.641000000
H     3.463000000    -3.322000000    -1.694000000
O     1.959000000     1.252000000    -4.917000000
H     1.049000000     0.954000000    -4.940000000
H     2.424000000     0.647000000    -5.495000000
O     2.361000000    -0.015000000     5.895000000
H     2.276000000     0.255000000     4.980000000
H     1.459000000    -0.084000000     6.209000000
O    -0.639000000     3.212000000    -4.605000000
H    -0.438000000     4.140000000    -4.726000000
H    -0.028000000     2.921000000    -3.928000000
O    -3.628000000    -3.257000000     2.693000000
H    -2.829000000    -2.929000000     3.105000000
H    -4.206000000    -3.469000000     3.426000000
O     4.438000000     1.974000000     4.667000000
H     3.657000000     1.502000000     4.379000000
H     5.041000000     1.913000000     3.926000000
O     1.279000000    -3.235000000     4.528000000
H     1.123000000    -3.287000000     5.470000000
H     1.730000000    -4.052000000     4.315000000
O     3.387000000    -1.885000000     3.033000000
H     2.695000000    -2.089000000     3.662000000
H     3.343000000    -0.934000000     2.929000000
O    -2.938000000     3.745000000     2.030000000
H    -2.282000000     3.133000000     1.699000000
H    -3.281000000     3.325000000     2.819000000
O    -2.314000000    -0.765000000    -4.858000000
H    -2.823000000    -0.189000000    -5.429000000
H    -2.889000000    -0.927000000    -4.109000000
O    -3.003000000    -2.744000000     6.269000000
H    -2.625000000    -2.451000000     5.440000000
H    -3.351000000    -3.615000000     6.079000000
O    -4.043000000    -5.403000000    -0.511000000
H    -3.309000000    -5.928000000    -0.830000000
H    -4.029000000    -4.616000000    -1.054000000
O     0.307000000     3.210000000     8.178000000
H     0.620000000     2.734000000     8.947000000
H     0.286000000     2.552000000     7.482000000
O    -0.197000000     2.846000000    -1.021000000
H     0.631000000     2.367000000    -0.998000000
H    -0.843000000     2.225000000    -0.684000000
O    -1.870000000     3.635000000     5.083000000
H    -1.321000000     3.044000000     5.598000000
H    -2.059000000     4.363000000     5.675000000
O    -4.093000000     2.022000000     4.704000000
H    -3.257000000     2.381000000     5.002000000
H    -4.364000000     1.432000000     5.407000000
O    -4.528000000     3.516000000    -0.721000000
H    -4.235000000     3.453000000     0.188000000
H    -4.209000000     2.712000000    -1.131000000
O    -4.636000000    -1.591000000     0.262000000
H    -5.279000000    -0.890000000     0.360000000
H    -4.667000000    -2.063000000     1.094000000
O    -1.273000000    -2.112000000     3.762000000
H    -0.609000000    -2.751000000     3.503000000
H    -0.804000000    -1.278000000     3.793000000
O    -3.497000000    -1.667000000    -2.136000000
H    -2.608000000    -1.932000000    -1.898000000
H    -4.050000000    -2.046000000    -1.453000000
O    -5.660000000     2.440000000     2.550000000
H    -5.993000000     3.327000000     2.688000000
H    -5.225000000     2.217000000     3.373000000
O     6.908000000    -1.675000000    -0.555000000
H     7.616000000    -1.441000000     0.044000000
H     6.303000000    -2.192000000    -0.022000000
O     6.407000000     1.595000000     3.001000000
H     7.052000000     1.660000000     3.705000000
H     6.929000000     1.476000000     2.208000000
O     4.494000000    -1.707000000     5.659000000
H     4.405000000    -1.681000000     4.706000000
H     3.646000000    -1.408000000     5.987000000
O    -5.733000000    -1.701000000    -4.804000000
H    -6.137000000    -2.173000000    -4.076000000
H    -5.377000000    -0.907000000    -4.407000000
O     4.117000000     1.857000000     7.444000000
H     3.688000000     2.514000000     6.895000000
H     3.921000000     1.023000000     7.018000000
O    -0.047000000     3.906000000     3.176000000
H    -0.051000000     4.863000000     3.196000000
H    -0.829000000     3.653000000     3.666000000
O    -1.987000000    -3.456000000     0.549000000
H    -2.680000000    -2.987000000     1.015000000
H    -1.772000000    -4.194000000     1.119000000
O    -0.128000000    -4.085000000    -2.484000000
H    -0.247000000    -3.562000000    -3.276000000
H     0.155000000    -3.455000000    -1.821000000
O     4.748000000     0.717000000    -4.219000000
H     5.272000000     1.002000000    -3.470000000
H     4.073000000     1.389000000    -4.309000000
O    -4.149000000     1.076000000    -1.993000000
H    -3.742000000     0.210000000    -2.011000000
H    -4.990000000     0.937000000    -1.559000000
O     3.964000000     5.216000000     3.809000000
H     3.587000000     4.638000000     3.145000000
H     3.716000000     4.816000000     4.642000000
O    -0.393000000     1.044000000    -7.282000000
H    -0.838000000     0.365000000    -7.789000000
H    -1.102000000     1.561000000    -6.900000000
O     2.110000000     3.897000000     5.342000000
H     1.861000000     2.991000000     5.526000000
H     1.435000000     4.213000000     4.741000000
O     0.096000000    -1.955000000    -4.677000000
H    -0.733000000    -1.486000000    -4.770000000
H     0.520000000    -1.864000000    -5.530000000
O    -3.580000000     3.026000000    -4.553000000
H    -3.651000000     3.920000000    -4.219000000
H    -3.102000000     2.553000000    -3.872000000
O    -6.202000000     0.837000000     0.162000000
H    -7.156000000     0.890000000     0.116000000
H    -5.980000000     1.239000000     1.002000000
O    -0.239000000     1.392000000     6.218000000
H    -0.087000000     0.899000000     5.412000000
H    -0.865000000     0.861000000     6.710000000
O     4.707000000    -2.221000000    -2.312000000
H     5.372000000    -1.643000000    -1.938000000
H     4.893000000    -2.224000000    -3.251000000
O     3.844000000     4.126000000    -0.140000000
H     3.330000000     3.428000000     0.265000000
H     3.560000000     4.135000000    -1.054000000
O    -1.589000000    -0.740000000     7.245000000
H    -2.116000000    -0.829000000     8.040000000
H    -1.940000000    -1.403000000     6.650000000
O     5.661000000    -2.746000000     1.696000000
H     4.803000000    -2.466000000     2.015000000
H     5.631000000    -3.702000000     1.733000000
