158
-3010.12670
C    -0.145000000     0.552000000     1.393000000
H    -0.118000000     0.811000000     2.448000000
C    -0.410000000    -0.799000000     1.015000000
H    -0.685000000    -1.544000000     1.757000000
C    -0.247000000    -1.175000000    -0.306000000
H    -0.375000000    -2.133000000    -0.720000000
C     0.127000000    -0.232000000    -1.239000000
H     0.252000000    -0.455000000    -2.295000000
C     0.381000000     1.043000000    -0.847000000
H     0.581000000     1.823000000    -1.577000000
C     0.258000000     1.465000000     0.437000000
C     0.481000000     2.927000000     0.680000000
O    -0.138000000     3.237000000     1.674000000
O     1.207000000     3.679000000    -0.024000000
O     4.935000000     5.370000000     0.626000000
H     4.615000000     5.125000000     1.494000000
H     5.888000000     5.325000000     0.700000000
O    -0.640000000     7.930000000    -2.812000000
H    -0.143000000     8.363000000    -2.118000000
H    -0.475000000     6.997000000    -2.679000000
O    -0.396000000     1.444000000    -4.613000000
H    -0.335000000     0.567000000    -4.991000000
H     0.450000000     1.581000000    -4.187000000
O    -0.220000000    -3.435000000     5.331000000
H     0.516000000    -3.243000000     4.751000000
H    -0.121000000    -4.363000000     5.544000000
O     1.022000000    -6.328000000    -3.415000000
H     0.283000000    -6.918000000    -3.567000000
H     0.970000000    -5.692000000    -4.129000000
O     2.365000000     5.063000000     4.579000000
H     2.902000000     5.651000000     5.109000000
H     2.249000000     5.526000000     3.750000000
O     1.231000000    -6.626000000    -0.549000000
H     1.036000000    -6.611000000    -1.486000000
H     1.639000000    -7.480000000    -0.402000000
O     4.409000000     2.996000000     2.731000000
H     4.395000000     2.052000000     2.572000000
H     3.573000000     3.178000000     3.161000000
O    -1.975000000    -7.290000000     0.712000000
H    -2.205000000    -7.280000000     1.641000000
H    -1.561000000    -6.440000000     0.559000000
O     2.546000000     8.208000000     0.531000000
H     3.151000000     7.867000000    -0.128000000
H     3.113000000     8.517000000     1.238000000
O     2.302000000     1.877000000    -4.152000000
H     2.657000000     2.360000000    -4.898000000
H     2.177000000     0.987000000    -4.480000000
O     5.897000000     2.731000000    -1.526000000
H     5.682000000     1.800000000    -1.466000000
H     5.128000000     3.178000000    -1.172000000
O     0.236000000     1.427000000     6.059000000
H     0.138000000     1.761000000     5.167000000
H    -0.645000000     1.477000000     6.431000000
O    -4.253000000     0.150000000     3.155000000
H    -3.641000000     0.869000000     2.992000000
H    -3.694000000    -0.589000000     3.395000000
O    -3.193000000    -2.417000000     4.058000000
H    -2.816000000    -2.700000000     4.891000000
H    -2.641000000    -2.829000000     3.394000000
O    -0.796000000     4.094000000    -6.039000000
H    -1.641000000     3.882000000    -6.436000000
H    -0.496000000     3.268000000    -5.660000000
O     2.822000000    -0.953000000    -0.313000000
H     1.940000000    -0.588000000    -0.239000000
H     2.684000000    -1.860000000    -0.587000000
O    -1.950000000    -3.310000000    -2.687000000
H    -1.810000000    -2.988000000    -3.577000000
H    -2.417000000    -2.601000000    -2.246000000
O     4.347000000     0.247000000     1.957000000
H     4.047000000     0.087000000     1.063000000
H     3.659000000    -0.121000000     2.511000000
O    -2.762000000     2.468000000     1.827000000
H    -1.888000000     2.721000000     2.125000000
H    -2.657000000     2.300000000     0.891000000
O     2.315000000    -0.148000000     3.895000000
H     1.945000000     0.734000000     3.858000000
H     2.578000000    -0.259000000     4.809000000
O     4.268000000     0.387000000    -2.231000000
H     3.823000000     1.001000000    -2.815000000
H     3.566000000     0.008000000    -1.702000000
O    -1.515000000     5.009000000     3.167000000
H    -1.911000000     4.550000000     3.907000000
H    -0.943000000     4.359000000     2.759000000
O     1.729000000    -2.795000000     3.738000000
H     2.052000000    -1.895000000     3.689000000
H     1.938000000    -3.171000000     2.882000000
O    -1.782000000     3.283000000    -2.946000000
H    -1.490000000     2.855000000    -3.751000000
H    -1.995000000     2.561000000    -2.355000000
O    -3.224000000     2.140000000    -0.721000000
H    -3.408000000     1.325000000    -1.187000000
H    -4.059000000     2.610000000    -0.721000000
O    -0.291000000     7.267000000     3.960000000
H     0.485000000     7.300000000     3.400000000
H    -0.553000000     6.346000000     3.954000000
O    -4.374000000    -1.334000000    -2.389000000
H    -5.292000000    -1.558000000    -2.235000000
H    -4.399000000    -0.708000000    -3.113000000
O     4.710000000    -4.710000000    -3.601000000
H     5.615000000    -4.468000000    -3.796000000
H     4.608000000    -4.521000000    -2.668000000
O     0.910000000    -6.344000000     2.233000000
H     0.919000000    -6.335000000     1.276000000
H     1.273000000    -5.494000000     2.484000000
O     1.934000000     6.067000000     2.206000000
H     1.747000000     5.539000000     1.430000000
H     2.349000000     6.858000000     1.863000000
O     3.315000000     4.200000000    -1.302000000
H     2.542000000     3.914000000    -0.814000000
H     3.855000000     4.650000000    -0.652000000
O     2.409000000    -3.304000000    -2.038000000
H     2.330000000    -2.475000000    -2.510000000
H     2.369000000    -3.973000000    -2.721000000
O    -4.229000000    -2.699000000     0.436000000
H    -4.160000000    -3.301000000    -0.305000000
H    -3.475000000    -2.909000000     0.987000000
O     1.409000000    -1.164000000    -4.417000000
H     0.554000000    -1.427000000    -4.757000000
H     2.031000000    -1.746000000    -4.854000000
O    -3.451000000    -2.717000000    -5.334000000
H    -3.969000000    -2.817000000    -6.133000000
H    -3.860000000    -1.984000000    -4.874000000
O     2.822000000    -4.115000000     1.229000000
H     2.335000000    -4.029000000     0.409000000
H     3.715000000    -4.328000000     0.956000000
O    -0.960000000    -4.592000000    -0.230000000
H    -0.460000000    -5.334000000    -0.571000000
H    -1.117000000    -4.038000000    -0.995000000
O    -0.031000000     5.240000000    -1.734000000
H    -0.089000000     4.578000000    -2.423000000
H     0.427000000     4.801000000    -1.017000000
O    -4.665000000     6.047000000     1.918000000
H    -4.865000000     6.026000000     2.854000000
H    -3.944000000     5.426000000     1.814000000
O    -2.061000000    -3.952000000     2.238000000
H    -1.687000000    -4.637000000     2.792000000
H    -1.766000000    -4.172000000     1.354000000
O    -1.517000000    -6.443000000     3.489000000
H    -1.467000000    -6.776000000     4.385000000
H    -0.619000000    -6.499000000     3.161000000
O    -0.846000000    -1.213000000    -5.677000000
H    -1.669000000    -1.703000000    -5.658000000
H    -0.803000000    -0.853000000    -6.562000000
O     2.303000000     5.831000000    -3.799000000
H     3.189000000     5.498000000    -3.946000000
H     2.154000000     5.709000000    -2.862000000
O    -0.885000000     6.569000000     0.494000000
H    -0.976000000     5.976000000     1.240000000
H    -0.662000000     5.997000000    -0.240000000
O     1.592000000     2.504000000     3.729000000
H     1.859000000     3.377000000     4.016000000
H     1.056000000     2.660000000     2.952000000
O    -3.415000000    -5.172000000    -3.942000000
H    -3.387000000    -4.402000000    -4.509000000
H    -3.050000000    -4.871000000    -3.110000000
O    -4.158000000    -5.189000000    -0.976000000
H    -3.388000000    -5.755000000    -1.038000000
H    -4.873000000    -5.718000000    -1.329000000
