158
-3042.64972
C     0.075000000    -0.222000000     1.448000000
H     0.025000000    -0.487000000     2.501000000
C    -0.816000000    -0.926000000     0.588000000
H    -1.389000000    -1.795000000     0.902000000
C    -0.777000000    -0.581000000    -0.758000000
H    -1.353000000    -1.101000000    -1.466000000
C     0.070000000     0.424000000    -1.211000000
H     0.078000000     0.710000000    -2.260000000
C     0.886000000     1.050000000    -0.391000000
H     1.545000000     1.854000000    -0.708000000
C     0.911000000     0.769000000     0.961000000
C     1.823000000     1.527000000     1.912000000
O     1.844000000     1.317000000     3.117000000
O     2.508000000     2.392000000     1.460000000
O     0.225000000    -0.585000000    -5.284000000
H     0.605000000    -1.394000000    -5.626000000
H     0.944000000    -0.163000000    -4.813000000
O     4.317000000    -1.187000000     1.135000000
H     3.799000000    -1.991000000     1.161000000
H     4.289000000    -0.854000000     2.032000000
O     2.160000000    -0.078000000     7.847000000
H     1.941000000     0.069000000     6.927000000
H     2.651000000     0.702000000     8.104000000
O    -5.575000000     1.161000000    -2.959000000
H    -6.391000000     1.457000000    -2.555000000
H    -4.930000000     1.201000000    -2.252000000
O     3.187000000    -4.366000000    -0.167000000
H     2.717000000    -5.007000000    -0.699000000
H     2.866000000    -3.518000000    -0.473000000
O     4.032000000    -0.242000000     3.737000000
H     3.318000000     0.295000000     3.393000000
H     4.490000000     0.332000000     4.351000000
O     0.348000000     3.426000000    -3.930000000
H     0.744000000     2.617000000    -4.254000000
H     1.090000000     3.955000000    -3.635000000
O    -3.329000000     4.771000000    -2.398000000
H    -4.108000000     4.683000000    -2.947000000
H    -3.279000000     3.944000000    -1.918000000
O    -6.035000000    -0.657000000     2.712000000
H    -5.114000000    -0.477000000     2.898000000
H    -6.503000000    -0.330000000     3.480000000
O     4.208000000     5.814000000     1.798000000
H     3.879000000     6.440000000     2.443000000
H     3.874000000     6.135000000     0.960000000
O     1.597000000     5.451000000     3.318000000
H     0.999000000     5.105000000     2.655000000
H     2.095000000     4.689000000     3.612000000
O     2.110000000     1.554000000    -5.147000000
H     2.287000000     1.688000000    -6.078000000
H     2.965000000     1.355000000    -4.766000000
O    -3.179000000    -0.829000000     2.821000000
H    -2.567000000    -0.795000000     3.556000000
H    -3.288000000    -1.763000000     2.643000000
O     5.424000000     2.138000000     1.637000000
H     5.501000000     2.322000000     2.573000000
H     4.486000000     2.196000000     1.458000000
O    -5.179000000    -3.395000000    -3.910000000
H    -5.744000000    -3.104000000    -3.194000000
H    -4.976000000    -2.595000000    -4.395000000
O    -1.802000000     3.436000000    -5.257000000
H    -1.903000000     2.501000000    -5.077000000
H    -0.969000000     3.670000000    -4.848000000
O     7.293000000     3.471000000     0.099000000
H     7.489000000     2.665000000    -0.378000000
H     6.413000000     3.334000000     0.450000000
O     3.944000000     0.068000000    -1.764000000
H     4.020000000    -0.168000000    -0.839000000
H     3.509000000    -0.683000000    -2.167000000
O    -0.227000000    -4.991000000     1.329000000
H    -0.736000000    -4.397000000     0.778000000
H    -0.497000000    -5.866000000     1.050000000
O    -4.033000000    -1.987000000     5.675000000
H    -3.765000000    -1.484000000     6.444000000
H    -3.242000000    -2.042000000     5.137000000
O    -2.643000000    -4.031000000    -2.211000000
H    -3.489000000    -3.762000000    -2.570000000
H    -2.037000000    -3.957000000    -2.948000000
O    -7.125000000    -3.149000000    -2.019000000
H    -8.006000000    -2.775000000    -2.008000000
H    -6.573000000    -2.474000000    -1.624000000
O    -1.577000000     6.338000000    -0.165000000
H    -1.968000000     5.896000000    -0.919000000
H    -0.951000000     5.704000000     0.185000000
O     7.569000000     0.532000000     1.368000000
H     7.932000000     0.462000000     2.251000000
H     6.713000000     0.942000000     1.493000000
O     5.349000000     2.555000000    -2.130000000
H     4.953000000     1.686000000    -2.194000000
H     4.653000000     3.110000000    -1.778000000
O     1.361000000     4.334000000     6.867000000
H     1.706000000     3.739000000     6.201000000
H     0.659000000     4.810000000     6.423000000
O     4.529000000    -3.185000000     4.215000000
H     5.401000000    -3.302000000     3.839000000
H     4.401000000    -2.236000000     4.231000000
O     0.249000000     4.055000000    -1.145000000
H     1.205000000     4.037000000    -1.186000000
H    -0.026000000     4.244000000    -2.042000000
O    -1.969000000     0.906000000    -4.506000000
H    -1.185000000     0.410000000    -4.740000000
H    -2.655000000     0.245000000    -4.419000000
O    -2.789000000     1.915000000     1.860000000
H    -2.953000000     1.635000000     0.959000000
H    -2.609000000     1.102000000     2.334000000
O     1.786000000    -2.586000000     4.772000000
H     1.225000000    -3.193000000     4.288000000
H     2.672000000    -2.790000000     4.475000000
O    -2.848000000     2.018000000    -1.813000000
H    -2.749000000     1.709000000    -2.714000000
H    -2.237000000     1.482000000    -1.308000000
O    -1.452000000    -1.155000000     4.922000000
H    -0.871000000    -1.787000000     4.498000000
H    -0.873000000    -0.442000000     5.192000000
O    -0.211000000    -4.019000000     3.848000000
H    -0.925000000    -4.585000000     4.140000000
H    -0.090000000    -4.244000000     2.925000000
O     5.791000000     4.107000000     3.601000000
H     5.916000000     4.584000000     4.421000000
H     5.298000000     4.710000000     3.045000000
O    -5.008000000    -0.834000000    -0.511000000
H    -4.525000000    -0.994000000     0.300000000
H    -5.925000000    -0.791000000    -0.238000000
O    -3.660000000    -3.463000000     2.226000000
H    -3.319000000    -4.143000000     1.645000000
H    -4.559000000    -3.322000000     1.927000000
O     1.923000000    -4.403000000    -2.936000000
H     1.766000000    -5.247000000    -2.513000000
H     1.059000000    -4.124000000    -3.242000000
O     2.061000000    -2.100000000    -1.165000000
H     1.353000000    -1.506000000    -0.918000000
H     1.681000000    -2.657000000    -1.844000000
O    -0.457000000     4.065000000     1.527000000
H    -0.190000000     3.716000000     0.677000000
H    -1.148000000     3.472000000     1.823000000
O    -4.440000000    -0.902000000    -4.840000000
H    -4.538000000    -0.593000000    -5.741000000
H    -4.946000000    -0.279000000    -4.318000000
O     5.546000000     1.711000000     5.234000000
H     5.595000000     2.479000000     5.802000000
H     6.428000000     1.622000000     4.873000000
O    -3.084000000    -5.551000000     0.450000000
H    -3.830000000    -6.077000000     0.163000000
H    -2.631000000    -5.317000000    -0.360000000
O     2.586000000     4.886000000    -3.363000000
H     2.527000000     5.812000000    -3.128000000
H     3.434000000     4.606000000    -3.018000000
O    -0.808000000    -3.340000000    -4.108000000
H    -0.791000000    -3.790000000    -4.953000000
H    -1.326000000    -2.551000000    -4.268000000
O     3.469000000     3.788000000    -0.588000000
H     3.062000000     3.152000000     0.000000000
H     3.621000000     4.558000000    -0.040000000
O     2.574000000     3.203000000     4.628000000
H     2.240000000     2.610000000     3.955000000
H     3.518000000     3.045000000     4.639000000
O     1.204000000    -0.108000000     5.314000000
H     1.570000000    -0.992000000     5.298000000
H     1.665000000     0.354000000     4.614000000
