158
-3045.43836
C     1.297000000     0.821000000    -0.037000000
H     2.181000000     1.418000000     0.172000000
C     0.842000000    -0.023000000     0.973000000
H     1.381000000    -0.011000000     1.917000000
C    -0.236000000    -0.818000000     0.760000000
H    -0.365000000    -1.628000000     1.542000000
C    -1.009000000    -0.837000000    -0.378000000
H    -1.842000000    -1.526000000    -0.495000000
C    -0.696000000     0.120000000    -1.311000000
H    -1.289000000     0.223000000    -2.216000000
C     0.429000000     0.964000000    -1.142000000
C     0.585000000     2.114000000    -2.089000000
O    -0.212000000     2.290000000    -3.013000000
O     1.238000000     3.131000000    -1.828000000
O     0.991000000     4.134000000    -4.585000000
H     0.807000000     3.672000000    -3.768000000
H     1.886000000     3.880000000    -4.808000000
O     1.714000000    -1.119000000    -3.762000000
H     1.332000000    -1.022000000    -2.890000000
H     1.222000000    -0.507000000    -4.309000000
O    -0.014000000     4.406000000     2.351000000
H    -0.834000000     4.863000000     2.537000000
H     0.180000000     3.925000000     3.155000000
O    -5.543000000    -1.743000000     3.530000000
H    -6.224000000    -1.252000000     3.991000000
H    -5.127000000    -1.096000000     2.960000000
O    -3.611000000     2.001000000    -4.448000000
H    -3.792000000     1.194000000    -3.968000000
H    -2.841000000     2.370000000    -4.015000000
O     0.787000000    -6.187000000     2.787000000
H     1.026000000    -6.682000000     3.571000000
H     1.423000000    -6.463000000     2.127000000
O     1.094000000    -2.029000000     4.471000000
H     1.212000000    -1.102000000     4.263000000
H     1.979000000    -2.393000000     4.455000000
O    -0.320000000     5.323000000    -1.399000000
H    -0.810000000     4.966000000    -2.139000000
H     0.415000000     4.720000000    -1.285000000
O     3.708000000     3.880000000     4.437000000
H     4.016000000     3.268000000     3.768000000
H     3.890000000     4.746000000     4.071000000
O     3.529000000    -3.190000000     4.088000000
H     4.147000000    -3.826000000     3.728000000
H     3.953000000    -2.342000000     3.956000000
O    -5.748000000    -0.651000000     0.566000000
H    -4.982000000    -1.225000000     0.560000000
H    -5.447000000     0.155000000     0.146000000
O     3.154000000     2.926000000    -5.213000000
H     2.934000000     2.551000000    -6.066000000
H     3.558000000     2.205000000    -4.731000000
O     1.099000000     0.544000000     4.183000000
H     1.188000000     1.341000000     4.705000000
H     0.333000000     0.703000000     3.632000000
O    -3.870000000    -0.841000000    -3.795000000
H    -4.174000000    -0.495000000    -2.956000000
H    -3.256000000    -1.537000000    -3.559000000
O    -2.078000000     4.075000000    -3.627000000
H    -1.340000000     3.466000000    -3.656000000
H    -2.277000000     4.255000000    -4.546000000
O    -2.250000000     0.187000000     4.254000000
H    -2.398000000    -0.028000000     5.175000000
H    -2.237000000    -0.661000000     3.810000000
O    -1.905000000     2.864000000     4.023000000
H    -2.113000000     2.070000000     4.515000000
H    -1.847000000     2.575000000     3.113000000
O    -2.030000000    -7.289000000     2.575000000
H    -1.283000000    -7.080000000     2.013000000
H    -2.533000000    -6.475000000     2.617000000
O     2.011000000     3.947000000     0.750000000
H     1.360000000     4.356000000     1.320000000
H     1.550000000     3.805000000    -0.077000000
O     0.107000000     2.717000000    -6.718000000
H     1.022000000     2.694000000    -7.000000000
H     0.098000000     3.335000000    -5.987000000
O     4.309000000    -1.629000000    -2.395000000
H     3.493000000    -1.218000000    -2.683000000
H     4.167000000    -2.565000000    -2.533000000
O    -4.731000000     1.474000000     3.967000000
H    -3.966000000     0.980000000     3.674000000
H    -4.844000000     2.156000000     3.304000000
O    -0.052000000    -3.292000000     7.428000000
H     0.176000000    -3.107000000     6.517000000
H    -0.232000000    -2.432000000     7.809000000
O    -0.892000000    -4.294000000     1.824000000
H    -1.250000000    -4.441000000     0.949000000
H    -0.349000000    -5.064000000     1.993000000
O    -1.752000000     2.352000000     0.744000000
H    -0.910000000     2.780000000     0.592000000
H    -1.553000000     1.416000000     0.721000000
O    -1.831000000    -5.132000000    -0.525000000
H    -2.061000000    -6.054000000    -0.414000000
H    -2.013000000    -4.949000000    -1.447000000
O     4.955000000    -0.967000000     3.909000000
H     4.840000000    -0.679000000     4.815000000
H     5.018000000    -0.154000000     3.406000000
O     2.837000000     7.004000000     1.241000000
H     3.229000000     7.631000000     0.633000000
H     2.525000000     6.292000000     0.683000000
O    -4.825000000     1.499000000    -1.051000000
H    -4.344000000     2.271000000    -0.754000000
H    -5.594000000     1.853000000    -1.498000000
O    -3.348000000     5.769000000    -1.745000000
H    -3.779000000     5.114000000    -1.197000000
H    -2.852000000     5.257000000    -2.385000000
O    -0.442000000     0.436000000    -5.112000000
H    -0.164000000     1.219000000    -4.635000000
H    -0.644000000     0.752000000    -5.993000000
O     4.724000000     1.379000000    -0.241000000
H     5.300000000     1.734000000    -0.919000000
H     5.072000000     0.505000000    -0.065000000
O     3.916000000     2.545000000     2.124000000
H     3.206000000     3.108000000     1.814000000
H     4.020000000     1.890000000     1.433000000
O    -4.237000000    -3.779000000     4.672000000
H    -4.806000000    -3.061000000     4.397000000
H    -3.363000000    -3.391000000     4.713000000
O     6.984000000     1.534000000     1.749000000
H     6.114000000     1.929000000     1.813000000
H     6.883000000     0.838000000     1.100000000
O    -1.340000000    -2.233000000    -4.313000000
H    -0.977000000    -1.365000000    -4.486000000
H    -1.291000000    -2.686000000    -5.154000000
O    -4.524000000    -3.224000000     0.430000000
H    -4.410000000    -3.469000000    -0.488000000
H    -5.441000000    -3.424000000     0.619000000
O     1.477000000    -5.176000000    -0.806000000
H     1.103000000    -5.266000000    -1.682000000
H     1.117000000    -4.354000000    -0.474000000
O     3.786000000     3.832000000    -1.929000000
H     2.902000000     3.522000000    -1.733000000
H     4.274000000     3.039000000    -2.151000000
O    -1.566000000     6.481000000     0.964000000
H    -1.446000000     5.800000000     0.302000000
H    -2.454000000     6.806000000     0.815000000
O    -1.125000000     7.631000000    -2.621000000
H    -2.076000000     7.699000000    -2.707000000
H    -0.994000000     7.060000000    -1.864000000
O     5.713000000    -1.339000000    -0.163000000
H     5.320000000    -1.538000000    -1.013000000
H     5.583000000    -2.135000000     0.353000000
O     1.574000000     6.661000000    -3.220000000
H     1.736000000     5.754000000    -3.479000000
H     0.975000000     6.595000000    -2.477000000
O    -4.082000000    -5.312000000     2.351000000
H    -4.131000000    -4.555000000     1.767000000
H    -4.570000000    -5.044000000     3.131000000
O    -1.757000000     4.938000000    -6.215000000
H    -1.334000000     4.667000000    -7.030000000
H    -1.077000000     5.416000000    -5.740000000
O    -1.680000000    -2.840000000     3.976000000
H    -1.603000000    -3.527000000     3.313000000
H    -0.775000000    -2.626000000     4.205000000
O     1.284000000     3.132000000     5.232000000
H     2.228000000     3.239000000     5.115000000
H     0.945000000     4.026000000     5.274000000
O    -0.295000000    -4.507000000    -3.136000000
H    -0.746000000    -3.666000000    -3.053000000
H     0.318000000    -4.379000000    -3.860000000
