158
-3032.43854
C    -0.097000000     0.455000000     1.383000000
H    -0.207000000     0.782000000     2.413000000
C    -0.618000000    -0.755000000     0.926000000
H    -1.200000000    -1.389000000     1.589000000
C    -0.400000000    -1.063000000    -0.415000000
H    -0.987000000    -1.962000000    -0.898000000
C     0.226000000    -0.178000000    -1.284000000
H     0.288000000    -0.468000000    -2.330000000
C     0.710000000     1.024000000    -0.794000000
H     1.295000000     1.623000000    -1.488000000
C     0.608000000     1.328000000     0.589000000
C     1.165000000     2.638000000     1.061000000
O     0.839000000     2.968000000     2.164000000
O     1.821000000     3.361000000     0.352000000
O    -6.501000000    -4.348000000    -1.069000000
H    -5.986000000    -3.663000000    -0.643000000
H    -6.643000000    -5.002000000    -0.385000000
O     0.817000000     1.094000000    -4.588000000
H     0.808000000     0.621000000    -5.420000000
H     1.483000000     0.647000000    -4.066000000
O    -0.638000000    -3.701000000     2.885000000
H    -0.795000000    -4.341000000     2.190000000
H     0.253000000    -3.390000000     2.727000000
O     1.171000000    -7.560000000     0.404000000
H     0.929000000    -8.485000000     0.435000000
H     0.573000000    -7.177000000    -0.238000000
O    -4.799000000     1.731000000    -2.495000000
H    -4.052000000     1.727000000    -1.896000000
H    -5.517000000     1.359000000    -1.984000000
O     4.267000000     1.526000000     2.980000000
H     4.348000000     1.638000000     3.927000000
H     4.016000000     2.391000000     2.657000000
O     2.691000000     6.678000000     2.382000000
H     3.240000000     7.198000000     1.794000000
H     3.092000000     6.790000000     3.244000000
O     0.694000000     8.028000000     0.611000000
H     0.205000000     7.311000000     0.209000000
H     1.347000000     7.595000000     1.160000000
O     3.239000000     0.629000000    -2.997000000
H     3.906000000     1.130000000    -2.528000000
H     2.978000000    -0.056000000    -2.382000000
O    -1.370000000     0.995000000     7.167000000
H    -1.069000000     1.624000000     6.511000000
H    -2.277000000     1.246000000     7.342000000
O    -3.036000000     0.153000000     4.809000000
H    -2.401000000     0.798000000     5.120000000
H    -2.627000000    -0.693000000     4.990000000
O    -1.033000000    -2.219000000     5.312000000
H    -0.898000000    -2.829000000     6.037000000
H    -0.813000000    -2.724000000     4.529000000
O     3.046000000     3.234000000    -4.663000000
H     2.385000000     2.544000000    -4.604000000
H     3.203000000     3.494000000    -3.755000000
O    -5.512000000    -1.601000000    -0.036000000
H    -4.776000000    -1.551000000     0.575000000
H    -6.141000000    -0.959000000     0.294000000
O     5.184000000     5.326000000    -0.975000000
H     4.919000000     4.713000000    -0.289000000
H     5.811000000     4.835000000    -1.505000000
O     3.236000000    -0.651000000    -0.143000000
H     2.285000000    -0.569000000    -0.078000000
H     3.382000000    -1.565000000    -0.386000000
O    -0.113000000    -5.828000000    -1.211000000
H    -0.358000000    -6.011000000    -2.118000000
H    -0.947000000    -5.697000000    -0.760000000
O    -1.344000000     2.282000000     4.617000000
H    -0.942000000     2.410000000     3.758000000
H    -1.985000000     2.990000000     4.689000000
O    -3.963000000    -5.355000000    -1.889000000
H    -3.845000000    -6.198000000    -2.327000000
H    -4.911000000    -5.234000000    -1.855000000
O    -2.452000000     4.949000000     2.004000000
H    -1.851000000     5.222000000     2.697000000
H    -1.886000000     4.569000000     1.333000000
O     4.156000000     1.803000000    -0.515000000
H     4.158000000     0.853000000    -0.395000000
H     3.432000000     2.112000000     0.030000000
O    -0.820000000     5.754000000     5.662000000
H    -0.052000000     5.941000000     6.202000000
H    -0.461000000     5.393000000     4.852000000
O     2.310000000    -2.692000000     2.997000000
H     3.018000000    -2.348000000     3.542000000
H     2.721000000    -2.864000000     2.150000000
O    -0.881000000     3.902000000    -2.585000000
H    -1.150000000     3.064000000    -2.961000000
H    -0.375000000     4.324000000    -3.280000000
O     1.832000000    -5.613000000    -3.351000000
H     2.718000000    -5.584000000    -2.992000000
H     1.270000000    -5.342000000    -2.626000000
O    -1.840000000     1.329000000    -3.177000000
H    -1.025000000     0.828000000    -3.172000000
H    -2.502000000     0.708000000    -3.479000000
O    -2.902000000     1.747000000     0.117000000
H    -2.078000000     1.311000000    -0.099000000
H    -3.288000000     1.203000000     0.803000000
O    -3.090000000    -3.791000000    -3.996000000
H    -3.461000000    -4.086000000    -3.164000000
H    -3.625000000    -3.037000000    -4.243000000
O    -3.264000000     4.282000000    -0.844000000
H    -2.484000000     4.110000000    -1.372000000
H    -3.320000000     3.534000000    -0.250000000
O     1.579000000    -0.552000000     5.756000000
H     1.677000000    -1.478000000     5.977000000
H     0.729000000    -0.499000000     5.318000000
O     6.022000000     5.230000000     2.706000000
H     6.391000000     4.530000000     3.244000000
H     5.244000000     4.842000000     2.307000000
O     3.401000000     4.817000000     4.960000000
H     3.991000000     4.340000000     5.544000000
H     2.872000000     4.136000000     4.545000000
O     3.682000000     4.198000000     1.911000000
H     3.076000000     3.726000000     1.340000000
H     3.201000000     4.982000000     2.175000000
O    -4.020000000     0.302000000     2.202000000
H    -3.631000000    -0.572000000     2.163000000
H    -4.181000000     0.451000000     3.134000000
O     3.958000000    -2.783000000    -1.828000000
H     3.327000000    -2.700000000    -2.543000000
H     4.335000000    -3.656000000    -1.941000000
O    -3.839000000    -2.556000000     1.924000000
H    -3.184000000    -3.223000000     1.716000000
H    -4.112000000    -2.760000000     2.818000000
O     2.226000000    -2.569000000    -3.886000000
H     1.302000000    -2.545000000    -4.138000000
H     2.618000000    -3.209000000    -4.480000000
O    -3.376000000    -0.494000000    -4.446000000
H    -4.034000000     0.180000000    -4.618000000
H    -2.794000000    -0.459000000    -5.205000000
O     3.460000000    -3.553000000     0.685000000
H     3.448000000    -3.382000000    -0.257000000
H     3.253000000    -4.484000000     0.763000000
O    -0.095000000     5.418000000    -0.178000000
H    -0.241000000     5.175000000    -1.092000000
H     0.464000000     4.722000000     0.168000000
O    -3.008000000    -4.973000000     0.681000000
H    -3.694000000    -5.548000000     1.020000000
H    -3.190000000    -4.910000000    -0.257000000
O     0.716000000     5.785000000    -4.009000000
H     1.297000000     6.424000000    -4.421000000
H     1.105000000     5.629000000    -3.148000000
O     4.699000000     7.451000000     0.649000000
H     4.840000000     6.745000000     0.019000000
H     4.537000000     8.225000000     0.109000000
O    -0.711000000    -2.451000000    -4.412000000
H    -1.425000000    -3.055000000    -4.211000000
H    -1.089000000    -1.832000000    -5.038000000
O     2.317000000     4.207000000    -2.097000000
H     2.538000000     4.160000000    -1.167000000
H     1.582000000     3.602000000    -2.199000000
O     0.127000000     5.522000000     3.206000000
H     0.406000000     4.651000000     2.922000000
H     0.926000000     6.049000000     3.183000000
O     1.717000000     2.533000000     4.504000000
H     1.551000000     1.598000000     4.623000000
H     1.375000000     2.729000000     3.632000000
O    -0.923000000    -6.972000000    -3.600000000
H    -1.866000000    -7.073000000    -3.727000000
H    -0.738000000    -6.076000000    -3.881000000
