158
-3011.19951
C     0.311000000     0.017000000     1.474000000
H     0.551000000    -0.028000000     2.534000000
C    -0.207000000    -1.071000000     0.739000000
H    -0.469000000    -2.023000000     1.193000000
C    -0.488000000    -0.957000000    -0.634000000
H    -0.985000000    -1.869000000    -1.149000000
C    -0.169000000     0.263000000    -1.258000000
H    -0.349000000     0.365000000    -2.325000000
C     0.356000000     1.282000000    -0.555000000
H     0.376000000     2.264000000    -1.023000000
C     0.627000000     1.175000000     0.828000000
C     1.235000000     2.350000000     1.555000000
O     1.625000000     2.315000000     2.681000000
O     1.452000000     3.396000000     1.008000000
O     0.180000000     1.194000000    -4.893000000
H     0.163000000     0.734000000    -5.732000000
H     1.022000000     1.649000000    -4.886000000
O    -3.785000000    -5.600000000     1.414000000
H    -3.907000000    -5.164000000     0.571000000
H    -3.535000000    -6.496000000     1.187000000
O     3.322000000    -0.272000000     4.087000000
H     3.877000000     0.402000000     4.479000000
H     3.697000000    -0.415000000     3.218000000
O    -0.148000000    -0.125000000     7.331000000
H     0.143000000     0.110000000     6.450000000
H     0.030000000     0.654000000     7.858000000
O    -5.674000000     1.009000000    -2.180000000
H    -5.986000000     0.784000000    -1.304000000
H    -4.868000000     1.502000000    -2.028000000
O     2.927000000    -4.974000000     0.086000000
H     2.767000000    -5.871000000     0.379000000
H     3.862000000    -4.952000000    -0.117000000
O     4.447000000     2.279000000     2.901000000
H     3.502000000     2.293000000     2.747000000
H     4.559000000     2.718000000     3.744000000
O    -2.447000000    -1.712000000    -7.287000000
H    -2.365000000    -1.924000000    -8.217000000
H    -1.980000000    -2.418000000    -6.839000000
O     3.266000000     7.044000000     2.616000000
H     3.357000000     7.993000000     2.698000000
H     4.017000000     6.690000000     3.093000000
O    -0.082000000     7.436000000     1.023000000
H    -0.070000000     6.742000000     0.364000000
H     0.116000000     6.988000000     1.846000000
O    -3.067000000     1.108000000     5.832000000
H    -3.097000000     0.253000000     5.403000000
H    -2.393000000     1.592000000     5.354000000
O    -3.746000000    -0.628000000     3.110000000
H    -3.206000000    -1.150000000     3.704000000
H    -4.268000000    -1.272000000     2.632000000
O     4.452000000    -0.788000000     1.425000000
H     3.821000000    -0.766000000     0.706000000
H     5.186000000    -0.257000000     1.116000000
O     6.369000000     3.959000000    -0.479000000
H     5.973000000     3.103000000    -0.643000000
H     5.680000000     4.462000000    -0.045000000
O     2.865000000    -0.882000000    -0.882000000
H     1.990000000    -0.508000000    -0.987000000
H     2.948000000    -1.505000000    -1.604000000
O    -2.321000000    -4.319000000    -2.498000000
H    -2.188000000    -3.394000000    -2.708000000
H    -1.749000000    -4.787000000    -3.106000000
O    -4.112000000    -2.818000000    -4.793000000
H    -4.776000000    -2.212000000    -4.464000000
H    -3.318000000    -2.587000000    -4.311000000
O    -1.210000000     2.894000000     4.133000000
H    -0.309000000     2.616000000     3.972000000
H    -1.497000000     3.272000000     3.302000000
O    -5.436000000    -5.040000000    -4.072000000
H    -5.966000000    -4.818000000    -3.307000000
H    -4.885000000    -4.270000000    -4.213000000
O    -3.240000000     5.999000000     0.368000000
H    -3.133000000     6.890000000     0.703000000
H    -2.378000000     5.770000000     0.020000000
O     6.549000000     1.260000000     1.534000000
H     7.166000000     1.798000000     2.031000000
H     5.687000000     1.590000000     1.786000000
O     4.400000000     1.606000000    -1.293000000
H     4.099000000     0.729000000    -1.056000000
H     3.607000000     2.142000000    -1.284000000
O    -3.115000000     4.114000000     2.288000000
H    -3.134000000     4.619000000     1.475000000
H    -3.086000000     3.201000000     2.002000000
O    -1.553000000     5.746000000     3.650000000
H    -0.632000000     5.708000000     3.392000000
H    -1.990000000     5.122000000     3.070000000
O     0.730000000     5.060000000    -2.664000000
H     1.575000000     4.775000000    -2.317000000
H     0.858000000     5.088000000    -3.612000000
O    -2.104000000     2.183000000    -3.959000000
H    -1.214000000     1.833000000    -4.009000000
H    -2.628000000     1.580000000    -4.486000000
O    -2.652000000     1.683000000     1.860000000
H    -2.266000000     0.839000000     2.096000000
H    -3.580000000     1.492000000     1.720000000
O     1.262000000    -1.829000000     5.035000000
H     1.914000000    -2.519000000     5.160000000
H     1.734000000    -1.133000000     4.578000000
O    -3.280000000     2.655000000    -1.594000000
H    -2.752000000     2.681000000    -2.392000000
H    -2.698000000     2.282000000    -0.933000000
O    -1.666000000    -1.621000000     4.863000000
H    -0.711000000    -1.603000000     4.794000000
H    -1.897000000    -2.542000000     4.750000000
O     4.275000000     4.834000000     4.361000000
H     4.856000000     4.290000000     4.893000000
H     3.868000000     5.433000000     4.986000000
O     0.308000000    -5.825000000     3.224000000
H     0.421000000    -5.089000000     2.622000000
H     1.108000000    -6.341000000     3.124000000
O     2.857000000     5.759000000     6.397000000
H     3.117000000     5.241000000     7.159000000
H     2.162000000     5.247000000     5.985000000
O     4.300000000     4.805000000     1.111000000
H     4.265000000     4.157000000     1.815000000
H     3.786000000     5.543000000     1.439000000
O    -5.582000000     0.676000000     0.760000000
H    -5.529000000    -0.277000000     0.824000000
H    -6.197000000     0.929000000     1.449000000
O     3.063000000    -1.827000000    -3.643000000
H     2.307000000    -2.144000000    -4.136000000
H     3.511000000    -2.622000000    -3.354000000
O    -5.160000000    -2.308000000     1.436000000
H    -5.039000000    -3.047000000     0.839000000
H    -5.609000000    -2.684000000     2.194000000
O     0.704000000    -3.163000000    -5.011000000
H     0.320000000    -3.592000000    -5.775000000
H     0.622000000    -3.808000000    -4.308000000
O    -3.329000000     0.432000000    -5.777000000
H    -4.271000000     0.264000000    -5.806000000
H    -2.959000000    -0.169000000    -6.424000000
O     2.858000000    -3.187000000     2.178000000
H     2.117000000    -2.583000000     2.124000000
H     2.957000000    -3.524000000     1.287000000
O    -0.343000000     5.138000000     0.000000000
H    -0.076000000     5.131000000    -0.919000000
H     0.278000000     4.552000000     0.434000000
O    -4.633000000    -4.169000000    -0.887000000
H    -5.377000000    -4.539000000    -1.363000000
H    -3.904000000    -4.223000000    -1.504000000
O    -2.082000000    -1.149000000    -3.835000000
H    -1.143000000    -1.227000000    -4.003000000
H    -2.373000000    -0.450000000    -4.421000000
O     2.739000000     4.097000000    -1.141000000
H     2.160000000     3.722000000    -0.478000000
H     3.127000000     4.862000000    -0.716000000
O     1.020000000     5.535000000     2.622000000
H     1.177000000     4.677000000     2.229000000
H     1.894000000     5.897000000     2.766000000
O     1.231000000     1.366000000     5.101000000
H     1.955000000     0.740000000     5.123000000
H     1.345000000     1.834000000     4.274000000
O     0.711000000    -4.700000000    -2.791000000
H     1.363000000    -5.279000000    -2.396000000
H     0.367000000    -4.191000000    -2.057000000
O    -2.913000000    -4.128000000     3.847000000
H    -3.166000000    -4.545000000     3.024000000
H    -3.743000000    -3.948000000     4.290000000
