158
-3009.14531
C    -0.007000000     0.168000000     1.433000000
H    -0.031000000     0.280000000     2.514000000
C    -1.068000000    -0.328000000     0.633000000
H    -1.969000000    -0.540000000     1.204000000
C    -0.930000000    -0.316000000    -0.760000000
H    -1.673000000    -0.698000000    -1.383000000
C     0.268000000     0.070000000    -1.310000000
H     0.277000000     0.058000000    -2.397000000
C     1.263000000     0.663000000    -0.547000000
H     2.248000000     0.916000000    -0.930000000
C     1.187000000     0.625000000     0.878000000
C     2.341000000     0.900000000     1.759000000
O     2.442000000     0.263000000     2.777000000
O     3.192000000     1.688000000     1.415000000
O    -1.142000000     1.372000000    -4.456000000
H    -0.631000000     0.633000000    -4.786000000
H    -2.051000000     1.075000000    -4.504000000
O     6.625000000    -1.497000000     3.826000000
H     6.253000000    -1.795000000     4.656000000
H     6.102000000    -0.730000000     3.591000000
O    -5.775000000    -0.032000000    -2.529000000
H    -5.766000000     0.073000000    -1.578000000
H    -6.703000000    -0.062000000    -2.758000000
O     2.562000000    -2.255000000     2.705000000
H     1.834000000    -2.635000000     2.213000000
H     2.447000000    -1.309000000     2.609000000
O     4.554000000     0.516000000     4.254000000
H     3.800000000     0.422000000     3.671000000
H     4.459000000     1.392000000     4.628000000
O     1.615000000     4.457000000    -2.623000000
H     2.171000000     3.971000000    -3.232000000
H     2.195000000     4.676000000    -1.894000000
O    -1.677000000     5.463000000    -2.048000000
H    -2.274000000     5.532000000    -2.793000000
H    -1.499000000     4.526000000    -1.969000000
O    -7.303000000    -0.458000000     2.237000000
H    -7.311000000    -0.131000000     3.137000000
H    -6.533000000    -0.050000000     1.841000000
O     2.684000000     5.957000000     1.770000000
H     2.161000000     6.144000000     2.550000000
H     3.585000000     6.138000000     2.037000000
O     2.853000000     1.633000000    -4.372000000
H     3.541000000     1.975000000    -4.943000000
H     2.145000000     1.391000000    -4.969000000
O     1.275000000     1.018000000    -6.421000000
H     1.441000000     0.164000000    -6.820000000
H     0.907000000     1.546000000    -7.129000000
O     7.722000000     0.471000000     1.706000000
H     7.740000000    -0.444000000     1.985000000
H     6.854000000     0.587000000     1.319000000
O     0.246000000     2.638000000     7.121000000
H    -0.294000000     3.036000000     6.438000000
H     0.915000000     2.148000000     6.642000000
O    -4.390000000     0.009000000     3.179000000
H    -4.506000000     0.798000000     3.708000000
H    -4.683000000    -0.705000000     3.745000000
O     5.166000000     3.193000000     2.473000000
H     4.906000000     3.693000000     1.700000000
H     4.842000000     2.308000000     2.306000000
O    -3.671000000    -2.409000000    -5.832000000
H    -3.833000000    -1.604000000    -6.323000000
H    -2.951000000    -2.834000000    -6.298000000
O    -3.034000000    -6.952000000    -1.314000000
H    -3.531000000    -7.607000000    -0.825000000
H    -3.699000000    -6.444000000    -1.779000000
O     5.342000000     0.434000000     0.386000000
H     4.619000000     0.971000000     0.709000000
H     5.240000000     0.442000000    -0.566000000
O     0.555000000    -3.666000000     1.215000000
H     0.193000000    -3.801000000     0.340000000
H    -0.031000000    -4.153000000     1.795000000
O    -4.682000000     3.608000000    -4.276000000
H    -4.549000000     2.662000000    -4.220000000
H    -5.535000000     3.706000000    -4.698000000
O     4.003000000    -4.162000000     3.784000000
H     3.324000000    -4.633000000     4.267000000
H     3.536000000    -3.447000000     3.352000000
O    -2.069000000    -3.344000000    -2.632000000
H    -1.768000000    -4.065000000    -2.079000000
H    -3.010000000    -3.293000000    -2.470000000
O    -4.953000000    -3.032000000    -2.494000000
H    -4.918000000    -2.327000000    -3.140000000
H    -5.239000000    -2.603000000    -1.687000000
O    -2.156000000     3.448000000     2.724000000
H    -1.638000000     3.663000000     1.948000000
H    -2.826000000     2.843000000     2.406000000
O    -5.161000000    -5.638000000    -2.054000000
H    -5.939000000    -5.691000000    -1.499000000
H    -5.115000000    -4.719000000    -2.315000000
O     4.819000000     3.315000000    -1.996000000
H     4.535000000     2.447000000    -2.283000000
H     4.235000000     3.530000000    -1.269000000
O     0.079000000     3.688000000     0.694000000
H     0.784000000     3.055000000     0.563000000
H    -0.475000000     3.595000000    -0.081000000
O    -0.084000000     3.958000000    -4.994000000
H     0.330000000     4.241000000    -4.178000000
H    -0.321000000     3.044000000    -4.837000000
O    -5.107000000     1.035000000     0.965000000
H    -5.315000000     1.924000000     1.251000000
H    -4.683000000     0.632000000     1.723000000
O     1.396000000    -1.996000000     5.078000000
H     0.531000000    -2.374000000     4.918000000
H     1.842000000    -2.051000000     4.233000000
O    -1.171000000    -4.845000000    -4.874000000
H    -0.275000000    -4.508000000    -4.890000000
H    -1.617000000    -4.307000000    -4.220000000
O    -1.892000000     2.587000000    -1.435000000
H    -1.947000000     1.739000000    -0.994000000
H    -1.573000000     2.380000000    -2.313000000
O    -1.772000000     0.286000000     5.543000000
H    -1.749000000    -0.356000000     4.833000000
H    -0.891000000     0.659000000     5.557000000
O     1.433000000    -3.358000000    -5.425000000
H     1.785000000    -3.104000000    -4.572000000
H     2.129000000    -3.142000000    -6.046000000
O    -1.285000000    -1.850000000     3.803000000
H    -1.829000000    -2.547000000     4.168000000
H    -1.222000000    -2.059000000     2.870000000
O     7.513000000     4.259000000     3.008000000
H     7.644000000     4.616000000     2.129000000
H     6.771000000     3.662000000     2.915000000
O    -4.612000000    -1.501000000     0.029000000
H    -4.039000000    -2.005000000     0.606000000
H    -4.366000000    -0.589000000     0.185000000
O    -4.079000000    -3.522000000     2.760000000
H    -4.704000000    -4.246000000     2.789000000
H    -4.054000000    -3.190000000     3.657000000
O     2.278000000    -2.521000000    -2.914000000
H     3.228000000    -2.490000000    -2.807000000
H     1.933000000    -2.152000000    -2.100000000
O     4.290000000     0.474000000    -2.452000000
H     3.672000000     0.782000000    -3.115000000
H     5.071000000     0.229000000    -2.948000000
O    -3.917000000     0.951000000    -4.154000000
H    -4.242000000     0.782000000    -5.039000000
H    -4.499000000     0.447000000    -3.585000000
O    -1.626000000     3.306000000     5.419000000
H    -1.630000000     3.371000000     4.464000000
H    -2.075000000     2.481000000     5.605000000
O     3.937000000     3.435000000     5.153000000
H     3.526000000     4.262000000     5.407000000
H     4.285000000     3.601000000     4.277000000
O     0.671000000    -4.939000000    -1.403000000
H     0.354000000    -5.834000000    -1.525000000
H     1.351000000    -4.833000000    -2.068000000
O    -0.746000000    -1.558000000    -5.572000000
H    -0.034000000    -2.137000000    -5.301000000
H    -1.530000000    -1.943000000    -5.179000000
O     3.048000000     3.847000000     0.011000000
H     3.092000000     3.070000000     0.568000000
H     2.717000000     4.536000000     0.587000000
O     1.091000000     0.819000000     5.256000000
H     1.153000000    -0.007000000     5.736000000
H     1.576000000     0.662000000     4.446000000
O     4.541000000    -3.382000000     0.394000000
H     4.381000000    -4.314000000     0.247000000
H     3.781000000    -3.085000000     0.895000000
