158
-3041.82714
C     0.363000000     0.309000000     1.380000000
H     0.681000000     0.542000000     2.393000000
C     0.453000000    -0.969000000     0.816000000
H     0.854000000    -1.804000000     1.385000000
C     0.104000000    -1.149000000    -0.470000000
H     0.044000000    -2.096000000    -0.901000000
C    -0.388000000    -0.041000000    -1.227000000
H    -0.739000000    -0.146000000    -2.250000000
C    -0.425000000     1.246000000    -0.713000000
H    -0.767000000     2.083000000    -1.317000000
C    -0.062000000     1.407000000     0.614000000
C    -0.098000000     2.823000000     1.260000000
O    -0.200000000     2.862000000     2.501000000
O    -0.199000000     3.812000000     0.584000000
O    -0.958000000     3.237000000    -3.798000000
H    -0.064000000     2.897000000    -3.783000000
H    -1.140000000     3.393000000    -4.725000000
O     0.836000000    -3.636000000     2.787000000
H     0.104000000    -3.781000000     2.187000000
H     0.422000000    -3.498000000     3.640000000
O     0.759000000    -7.118000000    -1.782000000
H     0.279000000    -7.752000000    -1.249000000
H     1.034000000    -7.613000000    -2.553000000
O     1.817000000     6.046000000     5.398000000
H     2.334000000     5.256000000     5.553000000
H     1.468000000     5.933000000     4.514000000
O     4.016000000     0.703000000     2.257000000
H     4.760000000     1.287000000     2.106000000
H     3.418000000     1.213000000     2.804000000
O     1.047000000    -4.282000000    -2.618000000
H     1.124000000    -5.233000000    -2.695000000
H     0.131000000    -4.134000000    -2.382000000
O    -0.611000000    -7.293000000     0.921000000
H    -0.467000000    -6.996000000     1.820000000
H    -0.828000000    -6.495000000     0.438000000
O     2.151000000     6.129000000     0.233000000
H     2.548000000     5.469000000    -0.335000000
H     2.851000000     6.762000000     0.391000000
O     1.943000000     2.520000000    -4.055000000
H     1.840000000     1.569000000    -4.019000000
H     2.258000000     2.694000000    -4.942000000
O    -2.143000000     3.196000000     6.889000000
H    -2.381000000     2.305000000     6.630000000
H    -2.849000000     3.472000000     7.473000000
O    -2.618000000     0.568000000     5.878000000
H    -2.884000000     0.829000000     4.996000000
H    -2.118000000    -0.238000000     5.749000000
O    -0.994000000    -1.712000000     5.729000000
H    -0.429000000    -1.112000000     5.242000000
H    -0.660000000    -2.583000000     5.515000000
O     2.939000000    -1.868000000    -1.417000000
H     2.078000000    -1.545000000    -1.154000000
H     3.018000000    -2.719000000    -0.986000000
O    -1.745000000    -4.207000000    -2.883000000
H    -1.794000000    -4.776000000    -3.651000000
H    -2.490000000    -3.613000000    -2.978000000
O     4.617000000    -1.499000000     0.850000000
H     4.358000000    -1.658000000    -0.058000000
H     4.112000000    -0.728000000     1.111000000
O    -2.299000000     1.528000000    -7.189000000
H    -3.139000000     1.521000000    -7.647000000
H    -2.493000000     1.161000000    -6.326000000
O    -2.285000000     0.994000000     2.937000000
H    -1.416000000     1.392000000     2.984000000
H    -2.679000000     1.372000000     2.151000000
O    -3.564000000     1.201000000     0.434000000
H    -3.385000000     1.542000000    -0.442000000
H    -3.663000000     0.258000000     0.309000000
O     0.818000000     0.145000000     5.199000000
H     1.582000000     0.546000000     4.785000000
H     0.685000000     0.652000000     6.000000000
O     2.233000000    -0.067000000    -3.237000000
H     1.474000000    -0.604000000    -3.465000000
H     2.816000000    -0.662000000    -2.766000000
O    -2.072000000    -7.595000000    -2.292000000
H    -1.392000000    -7.139000000    -1.797000000
H    -2.836000000    -7.584000000    -1.715000000
O    -2.291000000     3.728000000     4.173000000
H    -2.160000000     3.890000000     5.108000000
H    -1.407000000     3.628000000     3.821000000
O    -3.408000000     7.376000000     2.510000000
H    -3.929000000     7.188000000     3.291000000
H    -3.400000000     6.551000000     2.024000000
O     3.067000000    -2.364000000     4.502000000
H     2.367000000    -1.718000000     4.412000000
H     3.000000000    -2.901000000     3.713000000
O    -4.932000000     3.988000000    -2.162000000
H    -4.466000000     4.740000000    -1.797000000
H    -5.797000000     4.022000000    -1.754000000
O    -3.090000000     2.016000000    -2.509000000
H    -2.548000000     2.634000000    -3.000000000
H    -3.788000000     2.555000000    -2.136000000
O    -3.354000000     0.377000000    -4.567000000
H    -3.156000000    -0.510000000    -4.266000000
H    -3.220000000     0.926000000    -3.794000000
O    -3.925000000    -2.283000000    -3.375000000
H    -4.558000000    -1.626000000    -3.087000000
H    -4.264000000    -2.589000000    -4.217000000
O    -3.488000000     5.916000000    -0.844000000
H    -3.299000000     5.351000000    -0.095000000
H    -2.631000000     6.097000000    -1.230000000
O     4.266000000    -5.605000000    -2.754000000
H     4.229000000    -6.503000000    -3.084000000
H     3.976000000    -5.067000000    -3.491000000
O     0.103000000     7.506000000     1.614000000
H     0.491000000     6.703000000     1.267000000
H     0.801000000     7.903000000     2.136000000
O     3.606000000     4.216000000    -1.034000000
H     4.365000000     4.218000000    -0.450000000
H     3.480000000     3.294000000    -1.259000000
O     1.537000000     5.094000000     2.831000000
H     0.721000000     4.661000000     2.580000000
H     1.949000000     5.329000000     1.999000000
O     3.121000000     1.490000000    -0.913000000
H     2.698000000     0.926000000    -1.561000000
H     2.597000000     1.378000000    -0.120000000
O     5.265000000     0.267000000     5.249000000
H     5.906000000     0.845000000     4.837000000
H     4.418000000     0.665000000     5.048000000
O    -4.052000000    -0.979000000     3.301000000
H    -4.162000000    -0.676000000     2.399000000
H    -3.229000000    -0.584000000     3.588000000
O     2.957000000    -4.500000000    -0.715000000
H     2.164000000    -4.567000000    -1.246000000
H     3.613000000    -5.001000000    -1.199000000
O    -4.265000000    -1.357000000     0.242000000
H    -3.952000000    -1.377000000    -0.663000000
H    -4.904000000    -2.069000000     0.289000000
O     0.070000000    -2.055000000    -4.255000000
H    -0.339000000    -2.391000000    -5.052000000
H     0.199000000    -2.829000000    -3.707000000
O     1.334000000     0.446000000    -6.515000000
H     1.241000000     0.865000000    -7.371000000
H     0.497000000     0.004000000    -6.373000000
O     3.608000000    -4.172000000     1.900000000
H     3.088000000    -4.150000000     1.096000000
H     4.474000000    -3.864000000     1.633000000
O    -1.396000000    -5.166000000    -0.356000000
H    -1.562000000    -4.558000000    -1.076000000
H    -1.739000000    -4.719000000     0.418000000
O    -0.887000000     5.582000000    -2.007000000
H    -0.834000000     4.963000000    -2.736000000
H    -0.572000000     5.087000000    -1.250000000
O    -5.098000000     4.020000000     4.164000000
H    -4.305000000     3.484000000     4.166000000
H    -4.792000000     4.903000000     4.371000000
O    -1.973000000    -2.827000000     1.247000000
H    -2.881000000    -2.578000000     1.075000000
H    -1.480000000    -2.011000000     1.155000000
O     2.762000000     5.700000000    -3.315000000
H     2.642000000     4.986000000    -3.940000000
H     2.918000000     5.262000000    -2.478000000
O    -2.606000000     4.852000000     1.298000000
H    -2.520000000     4.280000000     2.062000000
H    -1.751000000     4.808000000     0.869000000
O     2.106000000     2.193000000     3.942000000
H     2.537000000     3.044000000     4.021000000
H     1.283000000     2.382000000     3.492000000
