158
-3009.64706
C     0.414000000    -0.200000000     1.365000000
H     0.705000000    -0.492000000     2.371000000
C    -0.700000000    -0.769000000     0.730000000
H    -1.394000000    -1.393000000     1.286000000
C    -0.928000000    -0.562000000    -0.628000000
H    -1.869000000    -0.941000000    -1.039000000
C    -0.066000000     0.240000000    -1.363000000
H    -0.327000000     0.490000000    -2.388000000
C     1.081000000     0.699000000    -0.727000000
H     1.823000000     1.249000000    -1.301000000
C     1.253000000     0.618000000     0.637000000
C     2.365000000     1.368000000     1.419000000
O     2.207000000     1.696000000     2.606000000
O     3.426000000     1.637000000     0.835000000
O    -7.313000000    -2.970000000    -1.751000000
H    -7.256000000    -2.025000000    -1.607000000
H    -6.552000000    -3.328000000    -1.294000000
O    -3.265000000     0.903000000    -4.080000000
H    -2.427000000     0.443000000    -4.132000000
H    -3.909000000     0.212000000    -3.926000000
O    -0.718000000    -3.615000000     2.269000000
H    -1.653000000    -3.818000000     2.267000000
H    -0.385000000    -4.027000000     3.067000000
O     3.946000000     4.602000000    -0.144000000
H     3.706000000     5.455000000     0.220000000
H     3.668000000     3.971000000     0.520000000
O     1.808000000     0.260000000     7.011000000
H     1.659000000    -0.657000000     6.781000000
H     1.654000000     0.299000000     7.954000000
O     3.833000000    -3.405000000     1.503000000
H     3.094000000    -3.349000000     0.898000000
H     4.299000000    -2.577000000     1.390000000
O     3.394000000    -0.133000000     4.278000000
H     2.956000000     0.617000000     3.875000000
H     3.738000000     0.206000000     5.105000000
O     2.516000000     4.143000000    -3.685000000
H     3.360000000     4.279000000    -3.255000000
H     1.868000000     4.326000000    -3.004000000
O     2.250000000     4.618000000     2.104000000
H     1.338000000     4.754000000     2.362000000
H     2.496000000     3.791000000     2.519000000
O     2.863000000     7.311000000     2.869000000
H     2.268000000     7.666000000     2.208000000
H     2.879000000     6.369000000     2.696000000
O     4.531000000     1.597000000    -3.091000000
H     4.588000000     2.482000000    -2.730000000
H     3.840000000     1.651000000    -3.751000000
O    -1.465000000    -1.026000000    -4.862000000
H    -2.121000000    -1.660000000    -5.154000000
H    -0.766000000    -1.561000000    -4.487000000
O     5.777000000    -1.829000000     3.559000000
H     6.025000000    -1.013000000     3.994000000
H     5.071000000    -1.578000000     2.963000000
O    -1.293000000     3.858000000     6.024000000
H    -1.421000000     4.704000000     5.596000000
H    -0.562000000     3.459000000     5.553000000
O    -5.911000000    -0.604000000     3.329000000
H    -6.028000000    -0.250000000     4.211000000
H    -5.855000000     0.168000000     2.766000000
O     5.170000000     2.465000000     2.886000000
H     4.312000000     2.365000000     2.473000000
H     5.107000000     1.959000000     3.696000000
O     4.603000000    -0.823000000     0.825000000
H     4.343000000     0.086000000     0.973000000
H     5.020000000    -0.816000000    -0.036000000
O     1.292000000    -3.238000000     0.399000000
H     0.778000000    -3.853000000     0.921000000
H     0.972000000    -2.375000000     0.662000000
O    -3.779000000     3.066000000    -6.025000000
H    -3.411000000     2.495000000    -5.350000000
H    -4.652000000     3.288000000    -5.701000000
O     0.095000000    -2.579000000    -3.184000000
H     0.005000000    -1.858000000    -2.561000000
H    -0.134000000    -3.360000000    -2.680000000
O    -4.102000000    -3.537000000    -3.482000000
H    -4.142000000    -2.656000000    -3.852000000
H    -4.295000000    -3.416000000    -2.553000000
O    -1.888000000    -0.596000000    -7.649000000
H    -1.341000000    -0.607000000    -6.864000000
H    -1.677000000    -1.414000000    -8.099000000
O    -1.647000000     2.617000000    -0.106000000
H    -0.903000000     2.143000000     0.265000000
H    -2.089000000     2.999000000     0.652000000
O     5.909000000     1.817000000    -0.273000000
H     5.806000000     1.242000000    -1.032000000
H     5.038000000     1.851000000     0.122000000
O    -4.402000000     2.041000000     2.999000000
H    -3.622000000     1.536000000     2.769000000
H    -4.141000000     2.954000000     2.876000000
O    -6.890000000    -0.399000000    -0.547000000
H    -6.479000000     0.460000000    -0.640000000
H    -7.371000000    -0.346000000     0.279000000
O     1.223000000    -2.036000000     4.035000000
H     1.914000000    -1.477000000     4.392000000
H     1.605000000    -2.415000000     3.244000000
O     0.107000000    -4.084000000    -5.537000000
H    -0.004000000    -3.596000000    -4.721000000
H     0.855000000    -3.667000000    -5.966000000
O    -3.694000000     3.178000000    -2.409000000
H    -3.193000000     2.742000000    -1.719000000
H    -3.852000000     2.494000000    -3.059000000
O    -2.567000000    -0.366000000     5.533000000
H    -2.842000000    -1.140000000     5.041000000
H    -1.968000000     0.092000000     4.944000000
O     7.979000000    -0.226000000     0.424000000
H     8.581000000    -0.231000000    -0.320000000
H     7.430000000     0.545000000     0.283000000
O    -3.717000000    -2.140000000     3.737000000
H    -4.537000000    -1.646000000     3.740000000
H    -3.848000000    -2.817000000     3.073000000
O     7.294000000     3.508000000     1.480000000
H     7.067000000     3.186000000     0.607000000
H     6.623000000     3.138000000     2.054000000
O    -4.280000000    -2.360000000    -1.088000000
H    -4.049000000    -2.644000000    -0.204000000
H    -4.968000000    -1.708000000    -0.959000000
O    -3.785000000    -5.012000000     2.012000000
H    -3.384000000    -5.849000000     1.780000000
H    -4.419000000    -5.230000000     2.695000000
O     5.560000000    -0.536000000    -1.779000000
H     5.128000000    -0.069000000    -2.494000000
H     5.598000000    -1.446000000    -2.074000000
O    -0.455000000     4.532000000     2.282000000
H    -0.674000000     5.271000000     1.714000000
H    -1.285000000     4.074000000     2.410000000
O    -5.596000000    -0.829000000    -4.948000000
H    -6.388000000    -0.295000000    -4.882000000
H    -5.742000000    -1.379000000    -5.718000000
O    -6.332000000     2.784000000    -2.644000000
H    -5.542000000     2.656000000    -2.119000000
H    -7.036000000     2.869000000    -2.002000000
O    -5.864000000     1.972000000    -0.008000000
H    -5.471000000     2.009000000     0.863000000
H    -6.561000000     2.628000000     0.015000000
O    -1.538000000     1.241000000     2.922000000
H    -1.187000000     0.866000000     2.114000000
H    -0.824000000     1.778000000     3.266000000
O    -0.550000000    -4.764000000    -1.604000000
H    -0.872000000    -5.508000000    -1.096000000
H     0.153000000    -5.128000000    -2.143000000
O     4.829000000     4.198000000    -2.680000000
H     4.658000000     4.224000000    -1.739000000
H     5.520000000     4.846000000    -2.816000000
O    -0.568000000    -2.959000000     5.890000000
H     0.089000000    -2.659000000     5.263000000
H    -1.233000000    -2.270000000     5.888000000
O    -3.928000000    -4.508000000    -5.884000000
H    -4.188000000    -4.057000000    -5.081000000
H    -3.357000000    -5.216000000    -5.587000000
O     0.202000000     3.907000000    -1.810000000
H    -0.652000000     3.525000000    -1.607000000
H     0.718000000     3.778000000    -1.014000000
O    -6.096000000    -4.608000000     0.344000000
H    -5.255000000    -4.696000000     0.792000000
H    -6.632000000    -4.085000000     0.940000000
O     0.666000000     2.556000000     4.913000000
H     1.091000000     2.270000000     5.722000000
H     1.265000000     2.283000000     4.218000000
