158
-3033.64088
C     0.960000000     1.025000000     0.438000000
H     1.692000000     1.691000000     0.887000000
C     1.054000000    -0.321000000     0.798000000
H     1.821000000    -0.694000000     1.472000000
C     0.057000000    -1.239000000     0.282000000
H    -0.034000000    -2.327000000     0.690000000
C    -0.886000000    -0.704000000    -0.583000000
H    -1.708000000    -1.286000000    -0.991000000
C    -0.855000000     0.587000000    -1.062000000
H    -1.666000000     0.904000000    -1.713000000
C     0.083000000     1.455000000    -0.540000000
C     0.093000000     2.900000000    -0.951000000
O    -0.766000000     3.378000000    -1.664000000
O     0.990000000     3.565000000    -0.538000000
O    -0.087000000     3.778000000    -4.387000000
H    -0.234000000     3.554000000    -3.468000000
H     0.803000000     4.128000000    -4.410000000
O     2.139000000    -1.297000000    -1.923000000
H     1.617000000    -1.353000000    -1.123000000
H     1.953000000    -0.424000000    -2.270000000
O    -0.434000000     2.896000000     2.741000000
H    -1.345000000     3.138000000     2.571000000
H    -0.404000000     1.952000000     2.586000000
O    -5.843000000     1.089000000    -2.223000000
H    -5.672000000     0.293000000    -2.727000000
H    -6.752000000     1.000000000    -1.935000000
O     4.375000000    -4.600000000     0.614000000
H     4.541000000    -5.420000000     1.079000000
H     5.218000000    -4.371000000     0.222000000
O    -3.106000000     3.745000000    -4.721000000
H    -2.176000000     3.767000000    -4.498000000
H    -3.317000000     4.648000000    -4.960000000
O    -1.430000000    -7.226000000     0.380000000
H    -0.613000000    -7.501000000    -0.036000000
H    -1.331000000    -7.485000000     1.296000000
O     6.853000000    -0.757000000     1.471000000
H     7.447000000    -1.507000000     1.489000000
H     6.003000000    -1.130000000     1.236000000
O     1.158000000    -3.910000000     5.435000000
H     0.998000000    -2.973000000     5.552000000
H     1.741000000    -3.961000000     4.678000000
O     2.190000000    -3.471000000    -3.414000000
H     1.925000000    -2.722000000    -2.881000000
H     3.122000000    -3.331000000    -3.578000000
O     0.141000000     5.861000000    -1.552000000
H    -0.154000000     6.436000000    -0.846000000
H     0.208000000     4.997000000    -1.147000000
O     3.521000000    -3.159000000     4.011000000
H     3.892000000    -3.692000000     3.308000000
H     3.609000000    -2.258000000     3.701000000
O    -4.642000000     2.100000000     0.076000000
H    -4.909000000     1.887000000    -0.818000000
H    -5.435000000     2.440000000     0.488000000
O     2.870000000     3.605000000    -4.232000000
H     3.220000000     4.196000000    -4.899000000
H     3.249000000     3.920000000    -3.411000000
O     0.613000000    -1.318000000     5.385000000
H     0.987000000    -0.479000000     5.116000000
H    -0.332000000    -1.166000000     5.396000000
O    -3.395000000    -1.659000000    -4.902000000
H    -3.293000000    -1.641000000    -3.951000000
H    -3.048000000    -2.512000000    -5.164000000
O     4.536000000     6.257000000    -0.654000000
H     4.081000000     5.434000000    -0.835000000
H     5.070000000     6.071000000     0.118000000
O    -5.637000000    -2.693000000    -2.828000000
H    -6.553000000    -2.513000000    -2.618000000
H    -5.269000000    -3.041000000    -2.015000000
O    -2.977000000     4.981000000    -2.147000000
H    -2.095000000     4.629000000    -2.026000000
H    -3.248000000     4.658000000    -3.007000000
O    -1.963000000    -0.510000000     5.517000000
H    -2.316000000     0.297000000     5.892000000
H    -2.324000000    -0.540000000     4.631000000
O    -3.014000000     1.333000000    -6.541000000
H    -2.526000000     1.630000000    -7.309000000
H    -2.803000000     1.973000000    -5.861000000
O     1.843000000     4.210000000     1.823000000
H     1.064000000     3.878000000     2.268000000
H     1.847000000     3.758000000     0.979000000
O    -5.014000000    -3.824000000     0.858000000
H    -4.092000000    -3.937000000     0.625000000
H    -5.416000000    -4.669000000     0.659000000
O     4.782000000    -1.684000000    -2.392000000
H     3.832000000    -1.571000000    -2.400000000
H     4.934000000    -2.472000000    -2.914000000
O    -2.145000000    -4.419000000     0.416000000
H    -2.282000000    -4.219000000    -0.510000000
H    -1.809000000    -5.315000000     0.420000000
O    -2.440000000     3.581000000     0.873000000
H    -1.973000000     4.061000000     0.189000000
H    -3.044000000     3.012000000     0.395000000
O    -1.522000000     0.011000000     2.644000000
H    -2.346000000     0.156000000     2.179000000
H    -0.873000000    -0.107000000     1.950000000
O    -1.926000000    -4.218000000    -2.387000000
H    -1.969000000    -4.701000000    -3.212000000
H    -1.333000000    -3.489000000    -2.567000000
O     4.518000000     1.014000000    -0.893000000
H     3.773000000     0.414000000    -0.923000000
H     5.177000000     0.608000000    -1.456000000
O     3.980000000    -0.845000000     2.795000000
H     3.866000000    -0.934000000     1.849000000
H     3.707000000     0.052000000     2.986000000
O     3.048000000     6.361000000     2.691000000
H     2.615000000     6.998000000     2.122000000
H     2.809000000     5.510000000     2.323000000
O    -4.085000000     0.350000000     1.937000000
H    -4.659000000    -0.306000000     1.542000000
H    -4.059000000     1.062000000     1.298000000
O    -5.576000000     5.651000000    -1.451000000
H    -4.643000000     5.580000000    -1.651000000
H    -5.636000000     5.465000000    -0.514000000
O     2.447000000     0.946000000    -3.231000000
H     2.575000000     1.891000000    -3.149000000
H     2.028000000     0.834000000    -4.085000000
O     5.939000000     1.924000000     1.842000000
H     5.322000000     1.919000000     1.110000000
H     6.520000000     1.183000000     1.670000000
O     3.556000000     2.014000000     2.978000000
H     3.181000000     2.872000000     2.781000000
H     4.479000000     2.094000000     2.737000000
O    -0.725000000    -2.289000000    -3.937000000
H    -0.521000000    -1.497000000    -4.434000000
H    -0.392000000    -3.005000000    -4.478000000
O    -5.911000000    -1.072000000     0.496000000
H    -6.796000000    -0.718000000     0.588000000
H    -6.041000000    -2.013000000     0.383000000
O     2.644000000    -5.996000000    -1.209000000
H     2.681000000    -5.675000000    -2.110000000
H     2.590000000    -5.204000000    -0.674000000
O     3.631000000     3.476000000    -0.968000000
H     2.693000000     3.487000000    -0.775000000
H     3.855000000     2.546000000    -1.013000000
O    -0.375000000     6.753000000     1.144000000
H     0.019000000     5.890000000     1.020000000
H    -1.121000000     6.595000000     1.723000000
O    -2.783000000     7.890000000    -2.465000000
H    -2.679000000     6.939000000    -2.515000000
H    -1.949000000     8.238000000    -2.781000000
O     4.354000000    -1.820000000     0.328000000
H     4.687000000    -1.844000000    -0.569000000
H     4.120000000    -2.728000000     0.520000000
O    -0.075000000     6.905000000    -4.216000000
H     0.647000000     7.527000000    -4.125000000
H    -0.032000000     6.371000000    -3.423000000
O     2.477000000     7.841000000    -2.880000000
H     3.422000000     7.723000000    -2.785000000
H     2.094000000     7.164000000    -2.322000000
O    -3.228000000    -5.489000000     4.106000000
H    -3.018000000    -4.759000000     3.524000000
H    -4.114000000    -5.749000000     3.854000000
O    -2.629000000    -3.109000000     2.848000000
H    -2.338000000    -3.389000000     1.980000000
H    -2.242000000    -2.241000000     2.961000000
O     2.250000000     1.215000000     5.159000000
H     2.860000000     1.298000000     4.426000000
H     1.705000000     2.000000000     5.107000000
