158
-3022.96895
C     0.229000000     1.402000000    -0.530000000
H     0.117000000     2.363000000    -1.026000000
C    -0.701000000     0.392000000    -1.014000000
H    -1.315000000     0.627000000    -1.880000000
C    -0.782000000    -0.875000000    -0.400000000
H    -1.572000000    -1.547000000    -0.737000000
C     0.065000000    -1.201000000     0.624000000
H    -0.039000000    -2.207000000     1.021000000
C     1.025000000    -0.277000000     1.061000000
H     1.739000000    -0.482000000     1.855000000
C     1.097000000     1.059000000     0.546000000
C     2.003000000     2.180000000     1.098000000
O     1.904000000     3.286000000     0.693000000
O     2.701000000     1.996000000     2.089000000
O     1.214000000    -5.270000000     0.215000000
H     0.922000000    -6.170000000     0.360000000
H     0.936000000    -5.069000000    -0.678000000
O     0.373000000     8.203000000     0.153000000
H    -0.332000000     8.461000000    -0.441000000
H     0.866000000     7.542000000    -0.332000000
O     0.427000000     2.363000000     5.241000000
H    -0.168000000     2.676000000     4.558000000
H     0.410000000     3.051000000     5.906000000
O    -2.402000000     1.262000000     1.587000000
H    -3.136000000     0.686000000     1.803000000
H    -1.775000000     0.693000000     1.141000000
O    -4.159000000    -1.221000000    -3.472000000
H    -3.902000000    -2.142000000    -3.452000000
H    -4.461000000    -1.037000000    -2.582000000
O     5.590000000    -1.886000000     1.670000000
H     6.394000000    -2.269000000     1.318000000
H     4.908000000    -2.523000000     1.456000000
O    -1.589000000    -1.652000000     5.809000000
H    -1.599000000    -0.732000000     5.547000000
H    -0.687000000    -1.934000000     5.660000000
O    -1.124000000     0.670000000    -6.670000000
H    -0.694000000    -0.056000000    -6.219000000
H    -2.055000000     0.447000000    -6.650000000
O    -1.408000000     3.004000000     3.364000000
H    -1.750000000     2.450000000     2.663000000
H    -0.908000000     3.682000000     2.911000000
O    -1.700000000    -3.354000000    -7.233000000
H    -1.605000000    -2.996000000    -6.350000000
H    -1.017000000    -2.919000000    -7.742000000
O     3.822000000     2.071000000    -3.677000000
H     4.637000000     1.700000000    -4.014000000
H     3.911000000     2.020000000    -2.725000000
O    -3.648000000    -5.962000000     0.014000000
H    -2.893000000    -5.459000000     0.318000000
H    -4.280000000    -5.301000000    -0.269000000
O    -5.668000000    -4.124000000    -1.035000000
H    -5.173000000    -3.500000000    -0.503000000
H    -6.580000000    -3.849000000    -0.938000000
O    -4.107000000     1.077000000    -4.873000000
H    -4.169000000     0.126000000    -4.783000000
H    -4.759000000     1.298000000    -5.538000000
O    -0.203000000     4.078000000    -3.727000000
H    -0.284000000     3.412000000    -4.409000000
H    -0.249000000     4.910000000    -4.198000000
O    -4.046000000    -2.885000000     0.740000000
H    -3.304000000    -3.420000000     1.022000000
H    -4.333000000    -2.435000000     1.534000000
O     1.396000000    -1.853000000     5.052000000
H     1.749000000    -1.075000000     4.620000000
H     1.255000000    -2.478000000     4.341000000
O    -0.835000000     5.239000000    -1.311000000
H    -0.585000000     5.064000000    -2.218000000
H    -1.417000000     4.515000000    -1.079000000
O     5.260000000     1.035000000     1.559000000
H     4.430000000     1.508000000     1.625000000
H     5.053000000     0.147000000     1.851000000
O     0.755000000    -4.655000000    -2.566000000
H     0.699000000    -3.749000000    -2.869000000
H     0.017000000    -5.094000000    -2.988000000
O     7.383000000     2.465000000     0.570000000
H     6.599000000     1.915000000     0.547000000
H     7.707000000     2.383000000     1.466000000
O    -3.918000000    -4.030000000    -3.150000000
H    -4.534000000    -4.058000000    -2.417000000
H    -4.431000000    -4.318000000    -3.905000000
O     5.000000000     0.623000000     5.293000000
H     4.726000000     1.184000000     6.019000000
H     4.193000000     0.442000000     4.812000000
O     6.968000000     2.542000000     3.629000000
H     6.674000000     1.851000000     4.222000000
H     6.196000000     3.095000000     3.504000000
O     3.413000000    -3.547000000     1.291000000
H     3.982000000    -4.206000000     0.894000000
H     2.552000000    -3.710000000     0.906000000
O     4.859000000     5.738000000    -1.477000000
H     4.813000000     5.698000000    -0.522000000
H     3.990000000     5.463000000    -1.770000000
O     2.236000000     5.977000000     4.333000000
H     1.552000000     6.305000000     4.917000000
H     2.597000000     6.763000000     3.922000000
O    -2.756000000     3.432000000    -0.290000000
H    -3.086000000     3.147000000    -1.142000000
H    -2.773000000     2.642000000     0.250000000
O    -3.783000000     1.578000000    -2.279000000
H    -4.107000000     0.756000000    -1.911000000
H    -3.713000000     1.409000000    -3.219000000
O    -4.945000000    -0.800000000    -0.899000000
H    -5.758000000    -0.581000000    -0.444000000
H    -4.566000000    -1.512000000    -0.384000000
O     4.643000000     2.201000000    -0.914000000
H     5.254000000     2.812000000    -0.502000000
H     4.722000000     1.399000000    -0.399000000
O     4.326000000     4.474000000     1.178000000
H     4.210000000     4.357000000     2.121000000
H     3.645000000     3.928000000     0.784000000
O     1.724000000     5.772000000    -0.694000000
H     2.106000000     5.004000000    -0.271000000
H     0.780000000     5.663000000    -0.580000000
O     1.336000000    -0.769000000    -5.714000000
H     1.215000000    -1.049000000    -4.806000000
H     1.946000000    -0.033000000    -5.658000000
O    -1.590000000    -6.096000000    -2.640000000
H    -2.125000000    -5.400000000    -3.019000000
H    -2.149000000    -6.872000000    -2.671000000
O    -1.640000000     6.661000000     2.642000000
H    -1.015000000     5.937000000     2.689000000
H    -1.543000000     7.004000000     1.753000000
O    -4.967000000    -2.027000000     3.372000000
H    -5.825000000    -2.444000000     3.290000000
H    -4.791000000    -2.025000000     4.313000000
O     3.149000000    -6.496000000     2.701000000
H     3.612000000    -5.756000000     3.095000000
H     2.410000000    -6.098000000     2.241000000
O     2.293000000     0.443000000     4.181000000
H     1.700000000     1.002000000     4.683000000
H     2.548000000     0.978000000     3.430000000
O    -1.848000000    -2.730000000    -4.593000000
H    -2.671000000    -2.979000000    -4.174000000
H    -1.445000000    -2.113000000    -3.983000000
O    -1.503000000    -4.791000000     1.501000000
H    -0.582000000    -4.811000000     1.243000000
H    -1.532000000    -5.277000000     2.325000000
O    -7.368000000     0.215000000    -2.784000000
H    -7.185000000    -0.188000000    -1.936000000
H    -8.189000000    -0.187000000    -3.069000000
O     0.425000000     4.943000000     2.398000000
H     0.803000000     4.361000000     1.739000000
H     1.059000000     4.936000000     3.115000000
O     4.088000000     3.556000000     3.778000000
H     3.417000000     3.077000000     3.292000000
H     3.595000000     4.138000000     4.356000000
O    -4.772000000     0.734000000     2.951000000
H    -4.704000000    -0.204000000     3.129000000
H    -5.355000000     1.065000000     3.634000000
O     1.104000000    -4.756000000     4.183000000
H     0.739000000    -5.638000000     4.114000000
H     0.407000000    -4.239000000     4.588000000
O     1.146000000    -1.693000000    -2.966000000
H     1.006000000    -1.403000000    -2.065000000
H     2.056000000    -1.990000000    -2.983000000
O     2.833000000     4.793000000    -3.578000000
H     1.901000000     4.760000000    -3.364000000
H     3.068000000     3.885000000    -3.765000000
