158
-3019.58398
C     0.467000000     1.333000000     0.427000000
H     0.935000000     2.299000000     0.600000000
C     1.295000000     0.240000000     0.308000000
H     2.363000000     0.434000000     0.373000000
C     0.742000000    -1.027000000    -0.051000000
H     1.350000000    -1.904000000    -0.214000000
C    -0.586000000    -1.112000000    -0.254000000
H    -1.011000000    -1.991000000    -0.731000000
C    -1.442000000     0.043000000    -0.142000000
H    -2.498000000    -0.147000000    -0.318000000
C    -0.937000000     1.252000000     0.312000000
C    -1.869000000     2.385000000     0.620000000
O    -1.388000000     3.447000000     1.021000000
O    -3.058000000     2.485000000     0.311000000
O     1.729000000    -0.195000000    -4.433000000
H     1.598000000    -1.050000000    -4.024000000
H     1.745000000     0.421000000    -3.700000000
O     5.376000000     2.116000000    -2.680000000
H     5.204000000     1.184000000    -2.549000000
H     6.323000000     2.202000000    -2.570000000
O     2.321000000    -4.856000000    -1.027000000
H     3.078000000    -4.602000000    -0.500000000
H     1.722000000    -5.268000000    -0.404000000
O     1.561000000    -5.224000000     3.463000000
H     0.666000000    -5.024000000     3.737000000
H     1.565000000    -6.172000000     3.331000000
O    -3.658000000    -1.773000000     1.805000000
H    -2.949000000    -2.029000000     2.395000000
H    -3.670000000    -0.817000000     1.846000000
O     0.717000000     3.038000000    -3.749000000
H     0.084000000     3.405000000    -3.132000000
H     1.300000000     2.507000000    -3.206000000
O    -7.398000000     2.699000000    -0.324000000
H    -6.522000000     3.034000000    -0.517000000
H    -7.305000000     1.747000000    -0.358000000
O     4.324000000    -2.503000000    -3.537000000
H     4.826000000    -3.280000000    -3.289000000
H     3.452000000    -2.838000000    -3.747000000
O     5.354000000     4.151000000     2.294000000
H     4.830000000     3.419000000     2.618000000
H     6.182000000     3.753000000     2.025000000
O    -1.106000000    -5.735000000    -1.369000000
H    -1.698000000    -5.096000000    -0.973000000
H    -0.418000000    -5.861000000    -0.716000000
O     0.479000000     6.783000000    -1.589000000
H     0.136000000     5.890000000    -1.622000000
H     1.058000000     6.844000000    -2.349000000
O     6.424000000    -0.222000000     2.725000000
H     6.289000000     0.048000000     3.633000000
H     7.342000000    -0.017000000     2.547000000
O    -4.011000000    -1.736000000    -4.598000000
H    -3.221000000    -2.274000000    -4.548000000
H    -3.998000000    -1.373000000    -5.484000000
O    -6.401000000    -2.035000000     0.428000000
H    -6.816000000    -2.317000000     1.243000000
H    -5.465000000    -2.019000000     0.628000000
O    -5.857000000     6.862000000     0.596000000
H    -5.827000000     7.433000000    -0.171000000
H    -5.520000000     6.023000000     0.283000000
O    -0.262000000     0.573000000     4.418000000
H    -0.666000000     1.052000000     5.142000000
H     0.118000000     1.254000000     3.863000000
O    -5.071000000     2.584000000    -4.299000000
H    -4.193000000     2.925000000    -4.470000000
H    -5.105000000     2.475000000    -3.349000000
O    -4.212000000     1.114000000     2.223000000
H    -3.856000000     1.686000000     2.903000000
H    -3.945000000     1.525000000     1.400000000
O     5.398000000    -4.608000000    -2.613000000
H     4.967000000    -5.386000000    -2.261000000
H     5.958000000    -4.301000000    -1.900000000
O     5.285000000    -1.783000000     0.610000000
H     4.656000000    -2.351000000     1.054000000
H     5.724000000    -1.311000000     1.318000000
O    -4.501000000     4.648000000    -0.125000000
H    -4.213000000     5.036000000    -0.951000000
H    -3.824000000     4.005000000     0.087000000
O    -5.357000000    -3.016000000     3.430000000
H    -4.985000000    -2.979000000     4.311000000
H    -4.801000000    -2.435000000     2.911000000
O    -4.583000000     7.424000000     2.925000000
H    -4.891000000     7.098000000     2.080000000
H    -3.782000000     6.928000000     3.096000000
O     2.389000000     1.396000000    -2.236000000
H     1.861000000     1.210000000    -1.460000000
H     3.264000000     1.078000000    -2.013000000
O     2.209000000    -4.440000000    -3.882000000
H     2.329000000    -5.332000000    -4.209000000
H     2.275000000    -4.523000000    -2.931000000
O    -0.040000000     3.433000000     3.528000000
H    -0.274000000     3.469000000     2.600000000
H     0.251000000     4.320000000     3.737000000
O     6.889000000    -3.487000000    -0.642000000
H     7.272000000    -3.915000000     0.124000000
H     6.249000000    -2.875000000    -0.279000000
O    -3.880000000     5.810000000    -2.488000000
H    -3.894000000     5.565000000    -3.413000000
H    -3.989000000     6.761000000    -2.490000000
O    -5.269000000    -0.423000000    -2.698000000
H    -4.856000000    -0.808000000    -3.472000000
H    -5.368000000    -1.156000000    -2.090000000
O    -2.032000000    -3.379000000    -3.416000000
H    -1.613000000    -4.222000000    -3.589000000
H    -2.622000000    -3.551000000    -2.682000000
O     3.437000000    -3.978000000     1.679000000
H     2.689000000    -4.258000000     2.207000000
H     4.201000000    -4.186000000     2.217000000
O    -0.746000000    -5.911000000    -3.914000000
H     0.163000000    -6.159000000    -4.078000000
H    -0.857000000    -6.017000000    -2.969000000
O     0.239000000    -5.166000000     1.013000000
H     0.626000000    -4.808000000     1.812000000
H    -0.639000000    -5.442000000     1.276000000
O    -1.983000000    -1.630000000     3.956000000
H    -2.511000000    -1.244000000     4.655000000
H    -1.237000000    -1.038000000     3.864000000
O     2.009000000    -8.072000000    -0.842000000
H     2.771000000    -8.081000000    -0.263000000
H     2.134000000    -7.298000000    -1.392000000
O     2.740000000     4.397000000    -1.228000000
H     3.162000000     3.614000000    -0.875000000
H     2.855000000     4.324000000    -2.176000000
O     1.156000000     5.074000000     1.120000000
H     0.293000000     4.673000000     1.021000000
H     1.509000000     5.107000000     0.231000000
O    -0.533000000    -2.447000000    -5.546000000
H    -0.779000000    -2.481000000    -4.622000000
H    -0.474000000    -3.364000000    -5.813000000
O    -6.255000000     0.454000000     4.016000000
H    -5.583000000     0.135000000     4.618000000
H    -5.778000000     0.667000000     3.214000000
O     4.535000000    -0.336000000    -1.630000000
H     4.603000000    -0.875000000    -0.842000000
H     4.545000000    -0.965000000    -2.351000000
O    -2.986000000     5.237000000     2.128000000
H    -2.300000000     4.571000000     2.079000000
H    -3.546000000     5.060000000     1.372000000
O    -0.958000000     4.246000000    -1.686000000
H    -1.015000000     4.103000000    -0.742000000
H    -1.801000000     4.635000000    -1.921000000
O    -3.833000000     5.700000000     4.795000000
H    -3.545000000     5.097000000     4.109000000
H    -4.729000000     5.427000000     4.993000000
O    -2.780000000     2.566000000     4.174000000
H    -1.920000000     2.781000000     3.813000000
H    -2.591000000     2.015000000     4.933000000
O    -0.438000000     6.496000000     3.106000000
H    -1.347000000     6.222000000     2.987000000
H    -0.152000000     6.763000000     2.233000000
O     2.186000000     5.272000000     3.877000000
H     2.543000000     4.424000000     3.611000000
H     1.772000000     5.617000000     3.086000000
O    -3.410000000    -3.663000000    -0.980000000
H    -4.360000000    -3.698000000    -1.095000000
H    -3.290000000    -3.340000000    -0.087000000
O    -5.026000000     1.989000000    -1.478000000
H    -4.249000000     2.194000000    -0.958000000
H    -4.939000000     1.058000000    -1.682000000
