158
-2999.70244
C     1.017000000     0.267000000    -1.079000000
H     1.653000000     0.615000000    -1.889000000
C    -0.006000000    -0.614000000    -1.191000000
H    -0.164000000    -1.166000000    -2.114000000
C    -0.872000000    -0.877000000    -0.140000000
H    -1.593000000    -1.653000000    -0.224000000
C    -0.725000000    -0.100000000     1.021000000
H    -1.454000000    -0.347000000     1.789000000
C     0.302000000     0.825000000     1.230000000
H     0.480000000     1.315000000     2.184000000
C     1.189000000     0.967000000     0.158000000
C     2.231000000     2.100000000     0.357000000
O     3.108000000     2.195000000    -0.461000000
O     2.156000000     2.773000000     1.329000000
O     1.623000000    -5.016000000     0.528000000
H     0.899000000    -4.766000000     1.102000000
H     1.210000000    -5.186000000    -0.319000000
O    -0.102000000     1.485000000     5.750000000
H    -0.963000000     1.212000000     6.066000000
H     0.507000000     0.858000000     6.141000000
O     2.578000000    -5.137000000    -4.631000000
H     3.394000000    -5.638000000    -4.637000000
H     2.749000000    -4.408000000    -4.035000000
O    -3.917000000     1.275000000     4.117000000
H    -3.619000000     0.864000000     4.928000000
H    -4.234000000     2.137000000     4.388000000
O    -4.004000000    -2.427000000    -3.225000000
H    -4.040000000    -2.980000000    -2.445000000
H    -4.147000000    -3.032000000    -3.953000000
O    -0.305000000     4.008000000     4.531000000
H    -0.399000000     3.175000000     4.992000000
H     0.444000000     3.878000000     3.950000000
O    -6.168000000     1.011000000    -2.163000000
H    -5.544000000     0.626000000    -1.547000000
H    -5.681000000     1.080000000    -2.985000000
O     2.777000000    -2.200000000    -3.639000000
H     2.781000000    -1.243000000    -3.654000000
H     3.677000000    -2.440000000    -3.418000000
O     0.042000000    -3.797000000     2.354000000
H     0.871000000    -3.334000000     2.477000000
H    -0.606000000    -3.248000000     2.796000000
O    -4.866000000     3.182000000     1.458000000
H    -5.400000000     3.429000000     0.702000000
H    -4.249000000     2.536000000     1.115000000
O    -0.139000000    -4.962000000    -4.062000000
H     0.802000000    -4.893000000    -4.223000000
H    -0.245000000    -4.695000000    -3.149000000
O     4.927000000     1.353000000     4.477000000
H     5.172000000     0.708000000     3.814000000
H     3.990000000     1.213000000     4.613000000
O     7.901000000     2.567000000    -1.643000000
H     8.323000000     1.714000000    -1.742000000
H     6.972000000     2.394000000    -1.797000000
O    -4.453000000    -4.004000000    -1.031000000
H    -4.966000000    -4.732000000    -0.679000000
H    -3.571000000    -4.143000000    -0.686000000
O     5.468000000     3.998000000    -4.099000000
H     6.027000000     3.452000000    -4.652000000
H     4.666000000     4.114000000    -4.608000000
O     5.327000000     2.030000000    -2.030000000
H     4.663000000     1.927000000    -1.349000000
H     5.150000000     2.891000000    -2.409000000
O    -1.699000000     6.772000000     2.303000000
H    -1.132000000     6.073000000     1.980000000
H    -2.545000000     6.607000000     1.885000000
O    -0.378000000     4.224000000     0.911000000
H    -1.004000000     3.688000000     0.423000000
H     0.273000000     3.600000000     1.231000000
O     3.338000000     7.726000000     3.120000000
H     3.291000000     7.821000000     2.169000000
H     3.100000000     6.814000000     3.281000000
O    -2.434000000    -2.845000000     3.291000000
H    -2.744000000    -3.564000000     3.841000000
H    -3.211000000    -2.307000000     3.139000000
O     5.350000000     6.056000000    -2.185000000
H     5.370000000     5.293000000    -2.763000000
H     4.580000000     5.920000000    -1.634000000
O    -6.707000000    -2.823000000     3.522000000
H    -6.830000000    -3.770000000     3.596000000
H    -6.820000000    -2.639000000     2.589000000
O    -2.432000000     3.026000000    -0.131000000
H    -2.787000000     2.176000000     0.129000000
H    -2.930000000     3.264000000    -0.913000000
O    -4.285000000     0.479000000     0.260000000
H    -3.646000000     0.043000000    -0.303000000
H    -4.336000000    -0.075000000     1.039000000
O     6.790000000     3.438000000     1.430000000
H     6.191000000     2.915000000     0.898000000
H     6.371000000     4.297000000     1.487000000
O    -6.908000000    -3.451000000    -2.320000000
H    -5.987000000    -3.488000000    -2.059000000
H    -7.319000000    -2.885000000    -1.667000000
O    -4.882000000     0.882000000    -4.429000000
H    -5.475000000     0.392000000    -4.999000000
H    -4.023000000     0.489000000    -4.583000000
O     5.497000000     6.307000000     1.569000000
H     5.325000000     5.834000000     0.754000000
H     5.745000000     7.187000000     1.287000000
O    -4.600000000    -1.014000000     2.636000000
H    -5.443000000    -1.347000000     2.946000000
H    -4.392000000    -0.297000000     3.236000000
O    -0.267000000    -4.270000000    -1.391000000
H    -1.013000000    -4.629000000    -0.910000000
H    -0.240000000    -3.348000000    -1.137000000
O    -0.312000000     4.300000000    -4.709000000
H    -0.610000000     4.147000000    -5.605000000
H    -0.311000000     3.431000000    -4.306000000
O    -6.927000000     0.940000000     1.205000000
H    -7.232000000     1.762000000     0.820000000
H    -6.061000000     0.803000000     0.822000000
O    -1.490000000    -3.873000000    -6.317000000
H    -0.875000000    -3.775000000    -7.044000000
H    -0.970000000    -4.264000000    -5.614000000
O     3.517000000     5.130000000    -0.108000000
H     2.728000000     5.610000000    -0.360000000
H     3.204000000     4.252000000     0.110000000
O     4.359000000     0.439000000    -3.865000000
H     4.785000000     0.930000000    -3.163000000
H     5.079000000     0.019000000    -4.335000000
O    -0.896000000     1.545000000    -4.335000000
H    -1.346000000     0.727000000    -4.123000000
H     0.006000000     1.281000000    -4.519000000
O     2.170000000     1.457000000    -5.213000000
H     1.800000000     2.243000000    -4.810000000
H     2.722000000     1.075000000    -4.531000000
O     3.339000000     4.455000000     5.424000000
H     3.128000000     5.251000000     5.912000000
H     2.981000000     4.608000000     4.549000000
O     2.334000000     4.992000000     2.799000000
H     1.735000000     5.276000000     2.109000000
H     2.551000000     4.088000000     2.571000000
O    -2.311000000    -4.942000000     0.283000000
H    -2.517000000    -4.561000000     1.136000000
H    -2.080000000    -5.851000000     0.476000000
O     4.165000000    -1.574000000     0.163000000
H     3.709000000    -1.042000000    -0.490000000
H     5.086000000    -1.335000000     0.066000000
O     2.084000000    -2.008000000     2.382000000
H     1.732000000    -1.161000000     2.106000000
H     2.891000000    -2.108000000     1.877000000
O    -0.169000000     5.452000000    -1.518000000
H    -0.089000000     4.958000000    -0.702000000
H     0.463000000     6.166000000    -1.429000000
O     0.260000000    -1.832000000    -5.033000000
H     0.962000000    -1.868000000    -5.683000000
H     0.678000000    -2.096000000    -4.214000000
O    -2.436000000    -0.794000000    -5.016000000
H    -1.620000000    -1.283000000    -5.120000000
H    -2.995000000    -1.368000000    -4.492000000
O    -0.888000000    -1.691000000     5.244000000
H    -1.275000000    -1.942000000     4.405000000
H     0.055000000    -1.685000000     5.080000000
O     1.829000000    -2.232000000     5.090000000
H     2.421000000    -2.804000000     5.578000000
H     2.121000000    -2.303000000     4.181000000
O     1.980000000     3.114000000    -2.878000000
H     2.275000000     2.669000000    -2.084000000
H     1.390000000     3.799000000    -2.564000000
