158
-3014.32801
C     0.293000000     0.392000000    -1.465000000
H     0.665000000     0.500000000    -2.480000000
C    -0.305000000    -0.849000000    -1.012000000
H    -0.533000000    -1.669000000    -1.688000000
C    -0.640000000    -1.011000000     0.325000000
H    -1.101000000    -1.994000000     0.620000000
C    -0.134000000    -0.123000000     1.309000000
H    -0.376000000    -0.295000000     2.355000000
C     0.515000000     1.095000000     0.924000000
H     0.939000000     1.783000000     1.651000000
C     0.690000000     1.327000000    -0.466000000
C     1.343000000     2.658000000    -0.930000000
O     1.562000000     2.832000000    -2.104000000
O     1.589000000     3.581000000    -0.151000000
O     1.382000000    -6.526000000    -1.757000000
H     1.243000000    -6.711000000    -0.828000000
H     1.351000000    -5.572000000    -1.819000000
O    -1.055000000     1.207000000     4.322000000
H    -1.375000000     0.668000000     5.046000000
H    -0.102000000     1.162000000     4.393000000
O    -1.530000000    -0.507000000     6.669000000
H    -1.250000000    -1.421000000     6.700000000
H    -1.228000000    -0.135000000     7.498000000
O     0.948000000     0.809000000     7.205000000
H     1.407000000     1.147000000     6.436000000
H     1.163000000    -0.123000000     7.222000000
O    -4.811000000     0.391000000     3.346000000
H    -5.243000000     0.021000000     4.116000000
H    -5.421000000     0.225000000     2.627000000
O     3.389000000    -1.515000000    -3.878000000
H     3.240000000    -0.620000000    -3.572000000
H     2.923000000    -2.064000000    -3.247000000
O     1.386000000    -7.228000000     1.132000000
H     2.179000000    -6.706000000     1.256000000
H     1.036000000    -7.344000000     2.015000000
O    -4.771000000    -5.247000000    -2.638000000
H    -4.391000000    -5.023000000    -1.789000000
H    -5.288000000    -6.035000000    -2.470000000
O     1.102000000     5.441000000    -5.696000000
H     0.158000000     5.528000000    -5.557000000
H     1.478000000     6.215000000    -5.277000000
O     2.351000000    -1.939000000     0.216000000
H     2.950000000    -1.196000000     0.140000000
H     1.479000000    -1.544000000     0.214000000
O     1.778000000    -3.314000000    -2.006000000
H     1.740000000    -2.833000000    -1.179000000
H     2.703000000    -3.537000000    -2.111000000
O    -3.503000000    -7.218000000     0.031000000
H    -2.715000000    -6.830000000    -0.348000000
H    -4.015000000    -7.507000000    -0.725000000
O     3.230000000     4.374000000     4.474000000
H     3.343000000     4.509000000     3.533000000
H     2.736000000     5.139000000     4.768000000
O    -3.160000000     2.440000000     2.301000000
H    -3.962000000     2.037000000     2.633000000
H    -2.456000000     1.995000000     2.772000000
O    -4.886000000    -4.454000000     2.603000000
H    -4.437000000    -5.138000000     3.098000000
H    -4.568000000    -3.635000000     2.982000000
O     3.999000000     7.173000000    -3.926000000
H     4.064000000     6.564000000    -3.191000000
H     3.060000000     7.332000000    -4.023000000
O    -2.631000000     0.949000000    -1.438000000
H    -3.440000000     0.440000000    -1.386000000
H    -1.976000000     0.402000000    -1.004000000
O    -2.519000000    -3.882000000    -1.386000000
H    -2.662000000    -2.944000000    -1.262000000
H    -1.815000000    -4.100000000    -0.775000000
O     3.244000000    -4.450000000     1.260000000
H     4.192000000    -4.327000000     1.305000000
H     2.915000000    -3.641000000     0.869000000
O    -1.382000000    -5.137000000     4.832000000
H    -2.299000000    -5.404000000     4.776000000
H    -1.332000000    -4.621000000     5.637000000
O     1.628000000    -1.749000000     6.573000000
H     1.708000000    -1.565000000     5.637000000
H     2.345000000    -2.354000000     6.761000000
O     5.472000000     5.740000000     1.025000000
H     4.940000000     6.513000000     0.838000000
H     5.724000000     5.838000000     1.943000000
O    -3.468000000    -1.904000000     2.459000000
H    -3.350000000    -1.017000000     2.799000000
H    -2.675000000    -2.369000000     2.726000000
O     4.044000000     2.934000000    -4.935000000
H     4.810000000     2.532000000    -5.344000000
H     3.525000000     3.262000000    -5.669000000
O    -0.286000000     1.186000000    -6.420000000
H    -0.305000000     1.637000000    -5.576000000
H     0.161000000     1.795000000    -7.008000000
O    -4.355000000    -1.506000000    -1.246000000
H    -5.042000000    -1.751000000    -0.626000000
H    -4.702000000    -1.760000000    -2.101000000
O     3.189000000     4.791000000    -2.839000000
H     3.408000000     4.266000000    -3.609000000
H     2.534000000     4.271000000    -2.373000000
O     5.674000000     4.778000000    -1.508000000
H     4.737000000     4.650000000    -1.653000000
H     5.766000000     4.820000000    -0.556000000
O     0.320000000    -1.424000000    -6.097000000
H     0.089000000    -0.509000000    -6.259000000
H     1.184000000    -1.526000000    -6.496000000
O    -6.234000000    -2.856000000     0.605000000
H    -5.729000000    -3.356000000     1.246000000
H    -6.974000000    -3.424000000     0.388000000
O     3.182000000     1.244000000    -3.150000000
H     2.431000000     1.709000000    -2.780000000
H     3.544000000     1.850000000    -3.796000000
O    -6.562000000    -0.476000000     1.445000000
H    -6.161000000    -1.300000000     1.171000000
H    -6.484000000     0.095000000     0.680000000
O     1.090000000     6.493000000     2.641000000
H     1.604000000     7.289000000     2.501000000
H     1.737000000     5.788000000     2.645000000
O    -2.200000000     4.328000000    -1.141000000
H    -2.033000000     3.434000000    -0.844000000
H    -1.329000000     4.703000000    -1.274000000
O     0.435000000    -6.779000000     3.689000000
H     1.276000000    -6.323000000     3.736000000
H    -0.207000000    -6.129000000     3.972000000
O     3.179000000     4.765000000     1.760000000
H     4.021000000     4.809000000     1.306000000
H     2.566000000     4.451000000     1.095000000
O     4.198000000     0.388000000    -0.116000000
H     3.835000000     1.095000000    -0.649000000
H     4.900000000     0.020000000    -0.653000000
O     4.672000000     0.721000000     2.620000000
H     4.324000000     0.569000000     1.741000000
H     4.797000000     1.669000000     2.667000000
O     0.204000000     5.736000000    -0.953000000
H     0.696000000     5.029000000    -0.535000000
H     0.861000000     6.404000000    -1.145000000
O    -2.924000000     2.891000000    -3.566000000
H    -2.779000000     2.344000000    -2.794000000
H    -2.046000000     3.159000000    -3.838000000
O    -1.291000000     6.668000000     1.446000000
H    -0.521000000     6.741000000     2.010000000
H    -0.960000000     6.272000000     0.640000000
O     0.099000000    -3.963000000    -4.072000000
H    -0.165000000    -3.166000000    -4.531000000
H     0.593000000    -3.650000000    -3.314000000
O    -2.950000000    -4.251000000    -4.545000000
H    -2.140000000    -4.162000000    -4.043000000
H    -3.571000000    -4.645000000    -3.931000000
O    -3.103000000     1.626000000    -6.080000000
H    -2.307000000     1.146000000    -6.306000000
H    -2.999000000     1.839000000    -5.153000000
O     2.428000000     1.638000000     4.918000000
H     2.843000000     1.264000000     4.141000000
H     2.582000000     2.580000000     4.842000000
O    -1.105000000    -2.944000000     3.096000000
H    -0.181000000    -2.707000000     3.178000000
H    -1.242000000    -3.611000000     3.768000000
O     1.601000000    -2.651000000     3.726000000
H     1.959000000    -3.535000000     3.801000000
H     2.230000000    -2.183000000     3.177000000
O     0.115000000     3.227000000    -4.360000000
H     0.711000000     3.163000000    -3.614000000
H     0.473000000     3.937000000    -4.893000000
