158
-3041.26133
C     0.911000000     0.939000000     0.600000000
H     1.605000000     1.567000000     1.152000000
C     0.960000000    -0.480000000     0.790000000
H     1.672000000    -0.900000000     1.496000000
C    -0.030000000    -1.212000000     0.119000000
H     0.037000000    -2.269000000     0.235000000
C    -0.979000000    -0.655000000    -0.683000000
H    -1.666000000    -1.295000000    -1.231000000
C    -0.999000000     0.729000000    -0.792000000
H    -1.763000000     1.235000000    -1.376000000
C    -0.046000000     1.547000000    -0.163000000
C    -0.078000000     3.073000000    -0.226000000
O    -0.890000000     3.600000000    -1.006000000
O     0.673000000     3.829000000     0.353000000
O    -1.678000000     3.453000000    -3.665000000
H    -1.421000000     3.371000000    -2.746000000
H    -0.863000000     3.330000000    -4.153000000
O     3.526000000    -0.856000000    -1.464000000
H     3.036000000    -0.360000000    -2.120000000
H     4.296000000    -1.179000000    -1.933000000
O    -1.055000000     2.710000000     3.141000000
H    -1.321000000     3.630000000     3.140000000
H    -0.122000000     2.730000000     3.355000000
O     0.947000000    -7.350000000     2.638000000
H     0.422000000    -6.980000000     3.347000000
H     0.583000000    -6.961000000     1.842000000
O    -4.707000000     4.321000000    -3.556000000
H    -3.868000000     4.007000000    -3.894000000
H    -4.684000000     5.267000000    -3.701000000
O     6.237000000     0.940000000     1.689000000
H     6.543000000     0.464000000     0.917000000
H     5.284000000     0.962000000     1.595000000
O     2.699000000    -3.505000000    -0.675000000
H     2.920000000    -2.758000000    -1.231000000
H     2.943000000    -3.228000000     0.208000000
O     1.175000000     6.106000000    -1.147000000
H     1.137000000     6.774000000    -0.463000000
H     0.720000000     5.353000000    -0.772000000
O     1.853000000     4.176000000     5.608000000
H     1.872000000     4.173000000     4.651000000
H     1.105000000     4.729000000     5.832000000
O     2.695000000    -2.582000000     5.095000000
H     3.359000000    -1.919000000     4.907000000
H     1.969000000    -2.091000000     5.481000000
O    -2.850000000     1.696000000     1.313000000
H    -3.079000000     2.496000000     0.840000000
H    -2.094000000     1.941000000     1.846000000
O     1.035000000     3.708000000    -3.691000000
H     1.503000000     4.143000000    -4.403000000
H     0.572000000     4.416000000    -3.242000000
O    -2.854000000     1.993000000    -5.732000000
H    -2.627000000     2.482000000    -4.941000000
H    -2.260000000     2.331000000    -6.402000000
O     3.791000000     7.245000000     0.145000000
H     3.601000000     6.314000000     0.033000000
H     4.708000000     7.272000000     0.420000000
O    -5.297000000    -1.337000000    -1.644000000
H    -6.026000000    -1.370000000    -1.025000000
H    -5.569000000    -0.696000000    -2.301000000
O    -3.510000000     3.470000000    -1.026000000
H    -2.573000000     3.663000000    -1.035000000
H    -3.821000000     3.754000000    -1.886000000
O    -2.887000000    -2.218000000    -5.119000000
H    -2.016000000    -2.109000000    -4.737000000
H    -2.722000000    -2.520000000    -6.012000000
O    -2.599000000    -6.063000000    -2.519000000
H    -2.569000000    -5.107000000    -2.486000000
H    -3.385000000    -6.261000000    -3.027000000
O     3.786000000     4.602000000    -2.632000000
H     3.169000000     5.242000000    -2.276000000
H     4.372000000     5.118000000    -3.186000000
O     0.310000000    -5.839000000     0.476000000
H     0.671000000    -4.982000000     0.704000000
H     0.962000000    -6.226000000    -0.107000000
O    -0.844000000    -6.026000000     4.377000000
H     0.035000000    -5.648000000     4.409000000
H    -1.300000000    -5.635000000     5.121000000
O     1.416000000     3.995000000     2.886000000
H     0.712000000     4.636000000     2.989000000
H     1.433000000     3.808000000     1.948000000
O     2.759000000    -6.916000000    -0.742000000
H     2.688000000    -7.789000000    -1.130000000
H     2.770000000    -6.321000000    -1.492000000
O     0.380000000     8.237000000     0.989000000
H     0.959000000     7.921000000     1.683000000
H     0.887000000     8.916000000     0.545000000
O    -3.397000000    -0.987000000     1.005000000
H    -2.753000000    -1.492000000     0.509000000
H    -3.043000000    -0.098000000     1.021000000
O     3.586000000    -3.223000000    -4.508000000
H     3.755000000    -3.029000000    -5.430000000
H     2.723000000    -2.847000000    -4.338000000
O    -2.228000000     5.744000000     1.040000000
H    -1.609000000     5.885000000     0.324000000
H    -3.079000000     5.982000000     0.671000000
O    -1.746000000    -0.382000000     4.431000000
H    -2.555000000    -0.459000000     3.926000000
H    -1.139000000     0.071000000     3.845000000
O    -2.486000000    -5.612000000     0.044000000
H    -1.573000000    -5.503000000     0.311000000
H    -2.437000000    -6.064000000    -0.799000000
O     4.292000000     1.781000000    -0.786000000
H     3.519000000     2.012000000    -1.300000000
H     4.216000000     0.837000000    -0.650000000
O     4.494000000    -0.364000000     4.166000000
H     4.435000000    -0.504000000     3.221000000
H     4.170000000     0.528000000     4.297000000
O     2.297000000     6.931000000     3.008000000
H     3.179000000     7.247000000     2.812000000
H     2.329000000     5.995000000     2.810000000
O    -4.353000000    -0.394000000     3.243000000
H    -5.277000000    -0.191000000     3.096000000
H    -4.039000000    -0.707000000     2.395000000
O    -0.236000000    -7.805000000    -2.147000000
H     0.568000000    -7.582000000    -2.616000000
H    -0.890000000    -7.194000000    -2.488000000
O    -3.664000000    -3.341000000    -2.366000000
H    -4.198000000    -2.642000000    -1.989000000
H    -3.452000000    -3.032000000    -3.247000000
O     2.156000000     1.030000000    -2.767000000
H     1.693000000     1.747000000    -2.333000000
H     1.584000000     0.780000000    -3.492000000
O     6.097000000     3.509000000     1.665000000
H     5.190000000     3.605000000     1.374000000
H     6.189000000     2.575000000     1.855000000
O     3.474000000     2.336000000     3.998000000
H     2.846000000     2.751000000     3.406000000
H     3.267000000     2.700000000     4.859000000
O    -0.307000000    -2.090000000    -4.030000000
H    -0.169000000    -1.213000000    -3.673000000
H     0.048000000    -2.678000000    -3.363000000
O     2.447000000    -4.121000000     2.186000000
H     3.335000000    -3.775000000     2.280000000
H     2.098000000    -4.132000000     3.077000000
O     3.523000000     4.284000000     0.590000000
H     2.743000000     3.743000000     0.714000000
H     3.813000000     4.085000000    -0.300000000
O    -0.691000000     5.570000000     3.480000000
H    -0.259000000     6.379000000     3.753000000
H    -1.307000000     5.844000000     2.801000000
O    -1.987000000     6.844000000    -1.770000000
H    -1.387000000     6.235000000    -2.201000000
H    -2.042000000     7.589000000    -2.369000000
O     4.188000000    -0.912000000     1.248000000
H     3.728000000    -1.071000000     0.423000000
H     5.042000000    -1.328000000     1.130000000
O     0.241000000     6.481000000    -3.522000000
H     0.719000000     7.265000000    -3.793000000
H     0.495000000     6.349000000    -2.609000000
O     3.716000000    -6.682000000     1.687000000
H     3.548000000    -6.743000000     0.747000000
H     2.849000000    -6.567000000     2.077000000
O     0.531000000    -4.252000000    -2.657000000
H     0.776000000    -5.129000000    -2.951000000
H     1.158000000    -4.047000000    -1.963000000
O    -4.875000000    -4.686000000    -0.487000000
H    -4.165000000    -4.967000000     0.091000000
H    -4.430000000    -4.314000000    -1.249000000
