158
-3026.63724
C     0.867000000     0.965000000    -0.658000000
H     1.470000000     1.704000000    -1.180000000
C    -0.008000000     0.017000000    -1.309000000
H    -0.216000000     0.078000000    -2.374000000
C    -0.831000000    -0.815000000    -0.598000000
H    -1.623000000    -1.504000000    -0.959000000
C    -0.665000000    -0.833000000     0.765000000
H    -1.243000000    -1.411000000     1.483000000
C     0.270000000     0.037000000     1.421000000
H     0.363000000     0.166000000     2.497000000
C     1.068000000     0.981000000     0.704000000
C     2.119000000     1.820000000     1.437000000
O     2.846000000     2.618000000     0.834000000
O     2.284000000     1.684000000     2.645000000
O    -2.642000000    -3.522000000     2.988000000
H    -2.412000000    -4.027000000     3.769000000
H    -3.167000000    -2.794000000     3.320000000
O     4.296000000    -2.835000000     1.741000000
H     4.020000000    -3.052000000     2.632000000
H     3.493000000    -2.550000000     1.305000000
O     1.008000000     3.572000000     4.154000000
H     1.316000000     2.695000000     3.927000000
H     0.921000000     4.021000000     3.313000000
O    -3.987000000    -1.372000000     3.492000000
H    -3.473000000    -0.583000000     3.664000000
H    -4.897000000    -1.091000000     3.587000000
O     0.211000000     0.020000000     7.573000000
H     0.576000000    -0.716000000     7.082000000
H    -0.736000000    -0.115000000     7.539000000
O     7.918000000     2.993000000     0.359000000
H     7.008000000     3.059000000     0.071000000
H     8.134000000     2.066000000     0.262000000
O    -4.458000000    -1.807000000     0.695000000
H    -4.400000000    -2.753000000     0.556000000
H    -4.279000000    -1.691000000     1.628000000
O     5.099000000     3.282000000     4.636000000
H     4.407000000     3.133000000     5.281000000
H     5.786000000     2.660000000     4.874000000
O     2.508000000    -3.283000000    -5.405000000
H     2.624000000    -2.528000000    -4.828000000
H     3.227000000    -3.217000000    -6.034000000
O    -5.061000000    -3.019000000    -2.387000000
H    -4.579000000    -2.208000000    -2.227000000
H    -5.978000000    -2.747000000    -2.431000000
O     6.862000000     1.429000000    -2.464000000
H     6.257000000     1.484000000    -1.724000000
H     6.609000000     2.154000000    -3.035000000
O    -2.119000000    -4.450000000    -1.749000000
H    -2.295000000    -4.372000000    -0.811000000
H    -1.264000000    -4.877000000    -1.798000000
O     4.936000000     0.015000000     5.979000000
H     5.803000000    -0.260000000     5.681000000
H     4.352000000    -0.205000000     5.254000000
O     1.695000000     1.323000000    -4.314000000
H     1.060000000     2.016000000    -4.136000000
H     1.521000000     1.064000000    -5.219000000
O     2.909000000    -3.699000000     4.158000000
H     2.559000000    -3.151000000     4.860000000
H     2.158000000    -3.867000000     3.588000000
O    -2.221000000     5.572000000    -1.216000000
H    -2.927000000     4.986000000    -1.487000000
H    -1.442000000     5.015000000    -1.196000000
O    -2.955000000     1.225000000     0.376000000
H    -2.453000000     0.439000000     0.157000000
H    -2.638000000     1.477000000     1.243000000
O     3.186000000     7.176000000     3.466000000
H     3.351000000     6.242000000     3.341000000
H     3.948000000     7.491000000     3.952000000
O    -4.115000000     1.085000000    -2.467000000
H    -4.822000000     1.037000000    -1.824000000
H    -3.721000000     1.946000000    -2.326000000
O    -0.324000000     4.277000000     1.739000000
H    -1.118000000     4.086000000     2.238000000
H    -0.524000000     3.984000000     0.850000000
O     2.028000000     5.003000000    -0.124000000
H     1.269000000     5.177000000     0.432000000
H     2.424000000     4.216000000     0.251000000
O     3.452000000     3.502000000    -3.407000000
H     3.173000000     4.255000000    -3.928000000
H     2.810000000     2.821000000    -3.607000000
O    -1.984000000    -7.735000000     0.115000000
H    -2.664000000    -8.408000000     0.085000000
H    -2.446000000    -6.939000000     0.376000000
O    -2.603000000    -0.518000000    -4.347000000
H    -2.680000000    -0.212000000    -5.251000000
H    -3.127000000     0.101000000    -3.839000000
O     1.904000000    -2.844000000    -2.201000000
H     1.018000000    -3.037000000    -2.506000000
H     2.148000000    -2.043000000    -2.665000000
O     2.957000000     3.340000000     6.677000000
H     2.971000000     4.247000000     6.983000000
H     2.247000000     3.315000000     6.036000000
O    -0.284000000    -6.346000000    -4.495000000
H    -0.687000000    -6.422000000    -3.630000000
H     0.657000000    -6.367000000    -4.324000000
O     5.944000000    -0.731000000     2.040000000
H     6.656000000    -0.894000000     2.659000000
H     5.618000000    -1.603000000     1.815000000
O     2.168000000    -1.668000000     5.920000000
H     2.589000000    -1.067000000     5.305000000
H     2.696000000    -1.606000000     6.715000000
O     5.367000000     3.804000000    -0.933000000
H     4.920000000     3.108000000    -0.451000000
H     4.918000000     3.836000000    -1.778000000
O    -0.790000000     3.395000000    -0.880000000
H    -1.393000000     2.664000000    -1.016000000
H    -0.169000000     3.332000000    -1.606000000
O     0.487000000    -3.222000000     2.894000000
H     0.943000000    -2.700000000     2.235000000
H    -0.387000000    -2.835000000     2.945000000
O     4.985000000     1.219000000    -0.011000000
H     4.115000000     1.539000000     0.227000000
H     5.277000000     0.726000000     0.756000000
O     3.569000000     4.595000000     2.676000000
H     4.098000000     4.077000000     3.283000000
H     3.339000000     3.984000000     1.977000000
O    -2.838000000     1.060000000     4.069000000
H    -2.893000000     1.113000000     5.023000000
H    -2.554000000     1.932000000     3.796000000
O    -5.286000000    -4.430000000    -0.039000000
H    -6.205000000    -4.675000000     0.065000000
H    -5.250000000    -3.988000000    -0.887000000
O    -4.587000000    -6.133000000    -2.511000000
H    -4.830000000    -6.244000000    -1.592000000
H    -3.816000000    -5.566000000    -2.489000000
O     0.113000000     3.824000000    -3.615000000
H    -0.599000000     3.798000000    -4.254000000
H     0.326000000     4.753000000    -3.531000000
O    -6.036000000     0.535000000     2.080000000
H    -6.139000000     1.486000000     2.097000000
H    -5.337000000     0.380000000     1.445000000
O    -2.836000000    -5.276000000     0.851000000
H    -3.793000000    -5.305000000     0.849000000
H    -2.616000000    -4.701000000     1.584000000
O     3.473000000    -0.349000000     3.901000000
H     4.062000000    -0.689000000     3.228000000
H     3.042000000     0.399000000     3.487000000
O     3.171000000    -0.889000000    -3.886000000
H     2.727000000    -0.050000000    -3.759000000
H     4.099000000    -0.662000000    -3.940000000
O    -1.299000000    -2.706000000    -3.647000000
H    -1.726000000    -1.885000000    -3.895000000
H    -1.894000000    -3.102000000    -3.011000000
O    -0.419000000    -3.338000000    -6.408000000
H    -1.007000000    -3.267000000    -5.656000000
H     0.444000000    -3.491000000    -6.024000000
O     4.883000000     6.206000000     0.198000000
H     5.170000000     5.408000000    -0.245000000
H     4.440000000     5.896000000     0.988000000
O     0.928000000     6.201000000     4.602000000
H     1.729000000     6.426000000     4.128000000
H     0.724000000     5.310000000     4.317000000
O     1.855000000    -2.144000000     0.487000000
H     2.065000000    -2.373000000    -0.418000000
H     1.091000000    -1.571000000     0.418000000
O     1.701000000     6.155000000    -2.815000000
H     2.591000000     6.507000000    -2.819000000
H     1.701000000     5.510000000    -2.108000000
