158
-3034.95619
C     0.869000000     1.077000000    -0.560000000
H     1.339000000     1.893000000    -1.103000000
C     0.011000000     0.208000000    -1.340000000
H    -0.125000000     0.430000000    -2.396000000
C    -0.709000000    -0.807000000    -0.645000000
H    -1.300000000    -1.559000000    -1.105000000
C    -0.517000000    -0.988000000     0.650000000
H    -1.088000000    -1.778000000     1.130000000
C     0.343000000    -0.191000000     1.351000000
H     0.479000000    -0.441000000     2.400000000
C     1.088000000     0.819000000     0.804000000
C     2.042000000     1.696000000     1.608000000
O     2.421000000     2.667000000     0.963000000
O     2.127000000     1.762000000     2.826000000
O    -1.828000000    -3.992000000     2.089000000
H    -2.353000000    -4.716000000     1.748000000
H    -2.439000000    -3.257000000     2.143000000
O     5.919000000     4.219000000     1.485000000
H     5.435000000     3.933000000     2.260000000
H     5.251000000     4.311000000     0.805000000
O     4.431000000    -2.463000000     0.370000000
H     4.117000000    -3.027000000     1.076000000
H     3.634000000    -2.129000000    -0.043000000
O     5.571000000     1.141000000     6.421000000
H     6.138000000     0.490000000     6.008000000
H     5.029000000     1.476000000     5.706000000
O     0.698000000     2.589000000     4.986000000
H     1.286000000     2.145000000     4.375000000
H    -0.138000000     2.132000000     4.887000000
O    -3.794000000    -2.487000000     3.094000000
H    -3.898000000    -1.546000000     3.237000000
H    -4.688000000    -2.827000000     3.073000000
O    -6.109000000    -1.241000000     0.074000000
H    -6.242000000    -1.601000000     0.951000000
H    -6.991000000    -1.039000000    -0.238000000
O     2.364000000    -4.734000000    -3.024000000
H     1.568000000    -4.942000000    -2.534000000
H     2.162000000    -3.914000000    -3.473000000
O     4.717000000     2.120000000     3.784000000
H     5.205000000     1.381000000     3.422000000
H     3.831000000     2.015000000     3.438000000
O    -2.897000000     2.201000000     2.018000000
H    -2.727000000     2.036000000     1.091000000
H    -2.906000000     3.155000000     2.094000000
O    -5.551000000    -2.367000000    -5.468000000
H    -5.384000000    -1.664000000    -6.096000000
H    -4.903000000    -2.230000000    -4.777000000
O     5.006000000     2.085000000    -3.804000000
H     5.053000000     2.088000000    -2.848000000
H     5.119000000     3.002000000    -4.052000000
O    -1.906000000    -4.574000000    -5.043000000
H    -2.281000000    -4.674000000    -5.918000000
H    -1.318000000    -5.324000000    -4.948000000
O    -3.846000000     0.376000000    -0.565000000
H    -4.519000000    -0.202000000    -0.207000000
H    -3.048000000    -0.153000000    -0.556000000
O     2.525000000     6.946000000     1.222000000
H     2.242000000     6.402000000     1.957000000
H     2.742000000     7.790000000     1.619000000
O    -1.361000000     0.266000000     5.468000000
H    -2.085000000     0.474000000     4.878000000
H    -1.274000000    -0.686000000     5.414000000
O    -5.032000000     1.649000000    -4.319000000
H    -4.942000000     2.493000000    -4.762000000
H    -5.297000000     1.874000000    -3.427000000
O     0.216000000     3.961000000     0.266000000
H     0.987000000     3.415000000     0.421000000
H    -0.464000000     3.344000000    -0.003000000
O     3.594000000     4.842000000    -0.184000000
H     3.078000000     5.648000000    -0.160000000
H     3.067000000     4.206000000     0.300000000
O    -0.383000000    -5.573000000    -2.312000000
H    -1.340000000    -5.576000000    -2.350000000
H    -0.151000000    -6.470000000    -2.071000000
O    -2.779000000    -0.266000000    -4.829000000
H    -2.304000000     0.503000000    -5.146000000
H    -3.663000000     0.056000000    -4.650000000
O     1.786000000    -2.079000000    -3.520000000
H     0.898000000    -1.981000000    -3.865000000
H     2.327000000    -1.537000000    -4.094000000
O     1.709000000     2.981000000     7.618000000
H     1.519000000     3.915000000     7.531000000
H     1.606000000     2.632000000     6.732000000
O     6.066000000    -0.189000000     3.274000000
H     6.888000000    -0.514000000     3.642000000
H     6.182000000    -0.263000000     2.327000000
O     2.078000000    -1.444000000     6.703000000
H     2.151000000    -0.890000000     5.925000000
H     2.925000000    -1.887000000     6.761000000
O    -1.326000000     4.706000000     5.468000000
H    -1.214000000     4.889000000     4.535000000
H    -0.711000000     3.995000000     5.648000000
O    -2.216000000     2.475000000    -0.760000000
H    -2.810000000     1.728000000    -0.695000000
H    -2.312000000     2.780000000    -1.663000000
O    -5.768000000     1.837000000    -1.775000000
H    -6.491000000     1.255000000    -2.010000000
H    -5.134000000     1.268000000    -1.341000000
O     0.714000000    -4.917000000     1.417000000
H     0.527000000    -4.796000000     0.486000000
H     0.034000000    -4.415000000     1.865000000
O     4.871000000     2.000000000    -1.036000000
H     4.081000000     2.218000000    -0.541000000
H     5.295000000     1.313000000    -0.522000000
O     2.272000000     4.469000000     3.045000000
H     2.879000000     4.639000000     3.765000000
H     2.364000000     3.532000000     2.870000000
O     0.811000000     6.339000000    -1.131000000
H     0.365000000     5.704000000    -0.571000000
H     1.312000000     6.884000000    -0.524000000
O    -3.749000000     0.433000000     3.867000000
H    -4.495000000     0.926000000     4.210000000
H    -3.417000000     0.970000000     3.148000000
O    -5.490000000    -3.237000000    -1.902000000
H    -5.723000000    -3.990000000    -1.358000000
H    -5.773000000    -2.477000000    -1.393000000
O    -2.522000000     3.315000000    -3.471000000
H    -2.632000000     2.925000000    -4.339000000
H    -1.635000000     3.674000000    -3.481000000
O    -3.014000000    -6.447000000     1.136000000
H    -2.935000000    -6.594000000     0.193000000
H    -3.879000000    -6.788000000     1.361000000
O    -3.294000000    -5.435000000    -3.011000000
H    -3.844000000    -4.711000000    -2.710000000
H    -2.781000000    -5.063000000    -3.728000000
O     0.226000000    -1.123000000    -7.213000000
H    -0.254000000    -1.061000000    -6.387000000
H     0.076000000    -2.020000000    -7.510000000
O     2.790000000    -0.426000000     4.340000000
H     3.479000000    -0.720000000     3.743000000
H     2.380000000     0.311000000     3.888000000
O     3.273000000     0.026000000    -4.653000000
H     2.989000000     0.449000000    -5.463000000
H     3.525000000     0.751000000    -4.081000000
O    -0.752000000    -2.046000000    -4.422000000
H    -1.598000000    -1.611000000    -4.318000000
H    -0.888000000    -2.923000000    -4.064000000
O    -1.908000000    -2.624000000     5.278000000
H    -2.490000000    -2.677000000     4.519000000
H    -1.180000000    -3.206000000     5.062000000
O    -2.214000000     2.112000000    -5.966000000
H    -3.102000000     2.180000000    -6.318000000
H    -1.651000000     2.426000000    -6.674000000
O    -0.094000000     5.481000000     2.681000000
H     0.725000000     5.060000000     2.944000000
H    -0.170000000     5.292000000     1.746000000
O     4.573000000     4.629000000     4.730000000
H     4.353000000     4.738000000     5.655000000
H     4.955000000     3.752000000     4.677000000
O     0.644000000    -3.790000000     5.766000000
H     1.050000000    -3.000000000     6.122000000
H     1.252000000    -4.494000000     5.990000000
O     2.016000000    -1.869000000    -0.746000000
H     2.003000000    -1.879000000    -1.703000000
H     1.561000000    -1.060000000    -0.509000000
O    -0.279000000     4.996000000    -3.287000000
H     0.519000000     4.487000000    -3.432000000
H    -0.057000000     5.593000000    -2.572000000
