158
-3049.15702
C     0.952000000    -0.978000000    -0.605000000
H     1.464000000    -1.745000000    -1.179000000
C    -0.361000000    -0.839000000    -0.981000000
H    -0.852000000    -1.473000000    -1.715000000
C    -1.180000000     0.081000000    -0.324000000
H    -2.191000000     0.151000000    -0.743000000
C    -0.654000000     0.757000000     0.768000000
H    -1.305000000     1.474000000     1.262000000
C     0.691000000     0.721000000     1.132000000
H     1.020000000     1.341000000     1.962000000
C     1.515000000    -0.174000000     0.441000000
C     2.970000000    -0.272000000     0.834000000
O     3.649000000    -1.210000000     0.396000000
O     3.505000000     0.665000000     1.410000000
O    -2.908000000    -5.346000000    -1.477000000
H    -3.425000000    -5.760000000    -2.168000000
H    -3.389000000    -4.545000000    -1.265000000
O     3.396000000    -3.735000000     1.372000000
H     4.231000000    -3.268000000     1.325000000
H     2.824000000    -3.262000000     0.768000000
O     5.246000000    -0.420000000     4.937000000
H     5.696000000    -0.395000000     4.092000000
H     4.333000000    -0.225000000     4.726000000
O    -4.889000000     0.134000000    -0.271000000
H    -5.767000000     0.252000000     0.092000000
H    -4.860000000     0.725000000    -1.023000000
O     2.743000000     0.645000000     4.098000000
H     3.013000000     1.231000000     3.391000000
H     2.170000000     0.006000000     3.673000000
O    -4.601000000     2.547000000     4.275000000
H    -4.254000000     2.268000000     3.428000000
H    -3.949000000     2.252000000     4.910000000
O    -2.380000000     1.823000000     5.770000000
H    -2.655000000     0.912000000     5.669000000
H    -1.429000000     1.799000000     5.666000000
O     0.712000000     0.281000000    -3.634000000
H     1.370000000    -0.395000000    -3.791000000
H     0.136000000    -0.095000000    -2.968000000
O    -6.778000000     0.745000000     2.320000000
H    -7.662000000     1.107000000     2.263000000
H    -6.215000000     1.507000000     2.455000000
O    -1.828000000     3.507000000    -1.155000000
H    -1.269000000     4.142000000    -1.602000000
H    -2.191000000     2.969000000    -1.859000000
O    -4.995000000     2.124000000    -1.964000000
H    -5.699000000     2.363000000    -2.568000000
H    -4.847000000     2.914000000    -1.445000000
O     4.564000000    -2.750000000    -1.448000000
H     5.402000000    -2.302000000    -1.562000000
H     4.122000000    -2.260000000    -0.754000000
O    -0.075000000    -3.525000000    -3.660000000
H     0.050000000    -4.086000000    -4.426000000
H     0.772000000    -3.096000000    -3.537000000
O     0.802000000    -4.346000000     3.183000000
H     0.237000000    -4.422000000     2.414000000
H     1.626000000    -3.999000000     2.842000000
O     5.718000000     0.374000000    -0.448000000
H     6.544000000     0.375000000     0.034000000
H     5.050000000     0.215000000     0.219000000
O     0.714000000     2.481000000     5.571000000
H     1.448000000     1.932000000     5.294000000
H     0.651000000     3.154000000     4.893000000
O    -5.976000000    -1.743000000    -3.569000000
H    -5.363000000    -2.397000000    -3.903000000
H    -5.425000000    -0.995000000    -3.338000000
O     3.835000000     4.156000000    -1.705000000
H     2.966000000     3.968000000    -2.060000000
H     4.376000000     3.420000000    -1.992000000
O     0.370000000     4.355000000     3.738000000
H     0.595000000     5.197000000     3.342000000
H    -0.211000000     3.938000000     3.101000000
O    -4.499000000     5.053000000    -1.528000000
H    -3.989000000     5.278000000    -2.307000000
H    -5.133000000     5.765000000    -1.443000000
O    -2.129000000    -2.794000000     1.486000000
H    -2.681000000    -2.533000000     0.749000000
H    -1.334000000    -3.138000000     1.079000000
O    -0.300000000    -4.736000000     0.652000000
H     0.434000000    -5.255000000     0.322000000
H    -1.014000000    -4.915000000     0.041000000
O     2.887000000    -6.469000000     1.807000000
H     3.627000000    -6.693000000     2.372000000
H     3.002000000    -5.537000000     1.621000000
O    -3.706000000    -2.674000000    -0.897000000
H    -3.278000000    -2.435000000    -1.719000000
H    -4.170000000    -1.881000000    -0.629000000
O    -4.014000000     0.225000000    -3.593000000
H    -3.305000000    -0.314000000    -3.243000000
H    -4.164000000     0.889000000    -2.919000000
O     7.056000000     0.179000000     2.777000000
H     6.754000000     1.028000000     2.456000000
H     7.995000000     0.174000000     2.593000000
O     6.604000000    -1.092000000    -2.878000000
H     7.043000000    -1.071000000    -2.027000000
H     6.863000000    -0.274000000    -3.301000000
O     6.333000000     2.690000000     1.848000000
H     5.384000000     2.816000000     1.854000000
H     6.573000000     2.725000000     0.922000000
O    -1.816000000     2.118000000    -3.450000000
H    -1.086000000     2.380000000    -4.011000000
H    -2.474000000     1.777000000    -4.057000000
O     4.175000000     3.339000000     5.012000000
H     4.337000000     2.459000000     5.353000000
H     4.239000000     3.243000000     4.062000000
O    -3.396000000     5.425000000     3.394000000
H    -3.108000000     4.823000000     2.709000000
H    -3.330000000     4.918000000     4.203000000
O     2.501000000    -1.713000000    -3.525000000
H     2.985000000    -1.162000000    -4.140000000
H     3.160000000    -2.005000000    -2.895000000
O     1.028000000    -1.560000000     3.583000000
H     1.049000000    -1.722000000     4.526000000
H     0.370000000    -2.171000000     3.250000000
O     7.541000000    -4.149000000     0.983000000
H     6.856000000    -3.501000000     1.144000000
H     8.029000000    -4.191000000     1.805000000
O    -2.690000000    -2.275000000    -3.553000000
H    -3.302000000    -2.668000000    -4.175000000
H    -1.919000000    -2.841000000    -3.584000000
O    -4.028000000     1.042000000     1.988000000
H    -4.329000000     0.316000000     1.441000000
H    -3.968000000     1.785000000     1.387000000
O     1.440000000     4.293000000     0.883000000
H     0.524000000     4.261000000     0.606000000
H     1.925000000     3.917000000     0.149000000
O     5.701000000    -2.171000000     1.802000000
H     6.187000000    -1.450000000     2.200000000
H     4.901000000    -1.765000000     1.468000000
O    -1.428000000     4.530000000     1.249000000
H    -1.481000000     4.033000000     0.433000000
H    -1.827000000     5.375000000     1.041000000
O     1.039000000     2.519000000    -1.614000000
H     0.884000000     2.138000000    -0.750000000
H     0.323000000     2.184000000    -2.155000000
O    -4.579000000    -3.030000000     2.524000000
H    -4.660000000    -3.507000000     3.351000000
H    -3.636000000    -2.953000000     2.383000000
O     3.354000000     6.059000000     1.421000000
H     3.442000000     6.573000000     0.618000000
H     2.589000000     5.503000000     1.267000000
O    -4.750000000     3.379000000     0.726000000
H    -4.779000000     3.956000000    -0.038000000
H    -5.243000000     3.847000000     1.399000000
O     4.434000000    -5.955000000    -2.727000000
H     4.169000000    -5.103000000    -2.382000000
H     5.254000000    -5.781000000    -3.189000000
O     3.994000000     1.233000000    -2.526000000
H     4.476000000     0.680000000    -1.911000000
H     3.076000000     1.118000000    -2.283000000
O    -6.978000000    -2.007000000     1.545000000
H    -6.058000000    -2.253000000     1.641000000
H    -7.013000000    -1.094000000     1.828000000
O    -2.167000000    -0.479000000     3.729000000
H    -2.608000000     0.102000000     3.109000000
H    -1.401000000    -0.800000000     3.253000000
O     3.622000000     2.977000000     2.232000000
H     2.843000000     3.421000000     1.896000000
H     3.599000000     2.112000000     1.824000000
