158
-3062.50546
C     0.666000000    -1.209000000    -0.484000000
H     1.111000000    -2.106000000    -0.908000000
C    -0.679000000    -0.996000000    -0.533000000
H    -1.309000000    -1.797000000    -0.911000000
C    -1.256000000     0.144000000     0.059000000
H    -2.371000000     0.213000000     0.300000000
C    -0.353000000     1.106000000     0.628000000
H    -0.766000000     2.042000000     0.996000000
C     1.024000000     0.944000000     0.495000000
H     1.670000000     1.781000000     0.748000000
C     1.556000000    -0.315000000     0.123000000
C     3.051000000    -0.463000000    -0.132000000
O     3.517000000    -1.393000000    -0.791000000
O     3.839000000     0.242000000     0.517000000
O    -1.917000000    -5.293000000    -0.881000000
H    -1.987000000    -4.677000000    -1.611000000
H    -2.669000000    -5.091000000    -0.324000000
O     3.890000000    -4.246000000    -0.410000000
H     4.038000000    -4.567000000    -1.299000000
H     3.606000000    -3.339000000    -0.527000000
O    -4.954000000     1.306000000    -0.108000000
H    -5.189000000     0.779000000    -0.871000000
H    -5.739000000     1.819000000     0.080000000
O     3.111000000     0.954000000     3.438000000
H     3.102000000     0.732000000     2.507000000
H     2.874000000     0.139000000     3.881000000
O    -1.845000000     1.598000000     3.385000000
H    -2.503000000     1.034000000     2.979000000
H    -1.062000000     1.050000000     3.442000000
O    -3.087000000    -0.075000000    -3.606000000
H    -3.227000000    -0.417000000    -4.489000000
H    -2.195000000    -0.342000000    -3.385000000
O    -7.594000000     2.379000000     0.006000000
H    -8.425000000     2.433000000     0.478000000
H    -7.123000000     3.172000000     0.259000000
O     5.858000000    -5.716000000     1.396000000
H     6.795000000    -5.902000000     1.440000000
H     5.799000000    -4.898000000     0.903000000
O    -3.070000000     2.851000000    -1.247000000
H    -3.347000000     2.350000000    -2.014000000
H    -3.593000000     2.497000000    -0.528000000
O    -3.902000000     3.866000000    -4.807000000
H    -3.776000000     4.560000000    -5.454000000
H    -3.111000000     3.894000000    -4.269000000
O     0.718000000    -4.745000000    -0.034000000
H    -0.141000000    -5.073000000    -0.302000000
H     1.162000000    -4.536000000    -0.856000000
O     5.035000000    -1.986000000    -3.914000000
H     5.980000000    -2.135000000    -3.906000000
H     4.770000000    -2.079000000    -2.999000000
O     7.709000000     0.825000000     0.091000000
H     7.586000000     0.424000000     0.951000000
H     8.612000000     0.613000000    -0.145000000
O    -0.427000000    -1.217000000    -4.124000000
H    -0.266000000    -1.821000000    -4.848000000
H     0.350000000    -1.294000000    -3.570000000
O     2.353000000    -2.853000000     2.005000000
H     1.483000000    -2.541000000     1.755000000
H     2.391000000    -3.749000000     1.669000000
O     4.505000000     2.730000000     0.279000000
H     4.190000000     3.058000000    -0.563000000
H     4.539000000     1.780000000     0.167000000
O     0.096000000     5.354000000     1.934000000
H    -0.045000000     4.937000000     2.784000000
H    -0.444000000     4.848000000     1.327000000
O    -3.103000000    -2.068000000     3.855000000
H    -2.262000000    -1.622000000     3.757000000
H    -3.644000000    -1.717000000     3.148000000
O     1.224000000     4.445000000    -1.792000000
H     1.423000000     3.510000000    -1.839000000
H     0.412000000     4.492000000    -1.287000000
O    -0.377000000    -3.475000000     2.235000000
H    -0.057000000    -4.040000000     1.532000000
H    -1.120000000    -3.952000000     2.605000000
O    -3.774000000    -3.726000000     0.711000000
H    -4.004000000    -2.847000000     0.411000000
H    -4.423000000    -3.927000000     1.385000000
O     6.943000000    -3.059000000     1.467000000
H     7.597000000    -3.340000000     2.107000000
H     6.390000000    -2.442000000     1.946000000
O    -5.961000000     0.072000000    -2.856000000
H    -5.141000000    -0.338000000    -3.132000000
H    -6.273000000     0.531000000    -3.636000000
O     6.096000000     0.590000000    -2.248000000
H     5.764000000     0.011000000    -1.562000000
H     6.412000000     1.362000000    -1.779000000
O    -1.313000000     2.258000000    -3.598000000
H    -0.500000000     1.987000000    -3.172000000
H    -1.843000000     1.462000000    -3.633000000
O     5.392000000     2.627000000     3.152000000
H     5.190000000     2.383000000     2.249000000
H     4.566000000     2.961000000     3.501000000
O     6.406000000    -4.297000000    -2.175000000
H     6.308000000    -3.459000000    -1.722000000
H     7.245000000    -4.227000000    -2.629000000
O    -1.684000000     4.221000000     3.684000000
H    -1.567000000     3.279000000     3.556000000
H    -1.607000000     4.346000000     4.629000000
O     2.203000000    -1.374000000    -3.144000000
H     2.938000000    -1.426000000    -3.756000000
H     2.613000000    -1.344000000    -2.280000000
O    -6.786000000     2.270000000     3.293000000
H    -7.605000000     2.696000000     3.039000000
H    -6.110000000     2.924000000     3.115000000
O     6.022000000    -1.832000000    -0.929000000
H     5.182000000    -1.484000000    -0.629000000
H     6.510000000    -2.008000000    -0.124000000
O    -4.333000000     4.207000000     2.914000000
H    -3.417000000     3.973000000     2.764000000
H    -4.377000000     4.418000000     3.846000000
O    -1.619000000     4.854000000    -3.502000000
H    -1.515000000     5.081000000    -2.578000000
H    -1.456000000     3.912000000    -3.537000000
O    -2.726000000    -3.153000000    -3.333000000
H    -2.242000000    -2.415000000    -2.963000000
H    -2.726000000    -2.990000000    -4.277000000
O    -4.670000000     0.151000000     2.782000000
H    -4.922000000     0.867000000     3.365000000
H    -5.136000000     0.330000000     1.966000000
O     2.452000000     5.659000000     0.501000000
H     1.679000000     5.515000000     1.048000000
H     2.223000000     5.268000000    -0.343000000
O     4.010000000     0.812000000    -5.131000000
H     3.440000000     0.109000000    -5.443000000
H     4.807000000     0.366000000    -4.845000000
O     5.439000000    -0.564000000     2.345000000
H     5.539000000     0.272000000     2.799000000
H     4.844000000    -0.373000000     1.619000000
O    -1.182000000     4.469000000    -0.438000000
H    -1.884000000     3.837000000    -0.589000000
H    -1.608000000     5.323000000    -0.514000000
O     0.910000000     1.453000000    -2.302000000
H     0.463000000     1.105000000    -1.530000000
H     1.679000000     0.893000000    -2.406000000
O    -7.652000000    -0.836000000    -0.119000000
H    -7.777000000     0.026000000     0.279000000
H    -7.349000000    -0.648000000    -1.007000000
O     1.355000000    -4.028000000    -2.646000000
H     1.077000000    -4.374000000    -3.494000000
H     1.860000000    -3.244000000    -2.861000000
O     3.323000000     4.834000000     3.650000000
H     3.505000000     5.012000000     2.728000000
H     2.631000000     5.454000000     3.882000000
O    -6.168000000     4.851000000     0.647000000
H    -5.791000000     5.571000000     0.142000000
H    -5.489000000     4.622000000     1.282000000
O    -6.354000000    -2.540000000     1.921000000
H    -6.894000000    -2.184000000     1.215000000
H    -6.967000000    -3.035000000     2.465000000
O     3.765000000     2.370000000    -2.588000000
H     4.331000000     3.114000000    -2.796000000
H     4.053000000     1.677000000    -3.182000000
O    -0.641000000    -1.070000000     3.562000000
H    -0.608000000    -1.866000000     3.033000000
H     0.264000000    -0.932000000     3.844000000
O     4.774000000    -2.909000000     3.905000000
H     4.139000000    -2.850000000     3.192000000
H     5.281000000    -2.100000000     3.842000000
