158
-3045.88215
C     0.828000000     0.929000000     0.759000000
H     1.539000000     1.514000000     1.337000000
C     0.992000000    -0.447000000     0.765000000
H     1.799000000    -0.949000000     1.292000000
C     0.162000000    -1.219000000    -0.075000000
H     0.409000000    -2.312000000    -0.219000000
C    -0.851000000    -0.620000000    -0.800000000
H    -1.569000000    -1.192000000    -1.383000000
C    -1.039000000     0.747000000    -0.786000000
H    -1.857000000     1.170000000    -1.365000000
C    -0.198000000     1.593000000     0.012000000
C    -0.446000000     3.046000000     0.223000000
O    -1.004000000     3.655000000    -0.685000000
O     0.011000000     3.671000000     1.155000000
O    -1.050000000     3.484000000    -3.347000000
H    -0.989000000     3.453000000    -2.393000000
H    -0.709000000     2.637000000    -3.636000000
O     2.402000000    -0.366000000    -1.982000000
H     1.580000000    -0.599000000    -1.550000000
H     2.476000000    -0.985000000    -2.708000000
O     0.292000000     2.103000000     4.035000000
H    -0.142000000     2.309000000     3.207000000
H     1.060000000     2.674000000     4.050000000
O     1.193000000    -5.198000000     1.207000000
H     1.896000000    -4.573000000     1.381000000
H     0.541000000    -4.696000000     0.717000000
O    -4.258000000     4.218000000     2.279000000
H    -3.837000000     4.965000000     2.705000000
H    -3.957000000     4.260000000     1.371000000
O     3.757000000    -3.626000000     2.314000000
H     3.578000000    -2.910000000     2.924000000
H     3.960000000    -4.374000000     2.876000000
O    -1.746000000     6.216000000    -1.704000000
H    -1.742000000     5.352000000    -1.291000000
H    -1.348000000     6.072000000    -2.563000000
O    -3.290000000    -5.277000000     0.359000000
H    -3.017000000    -5.770000000    -0.414000000
H    -2.554000000    -5.357000000     0.967000000
O     1.211000000     5.430000000    -1.342000000
H     1.197000000     6.012000000    -0.582000000
H     0.566000000     4.753000000    -1.137000000
O     3.376000000    -1.728000000     4.240000000
H     3.468000000    -0.953000000     3.686000000
H     3.440000000    -1.392000000     5.134000000
O     0.504000000     0.682000000     6.720000000
H    -0.376000000     0.306000000     6.706000000
H     0.603000000     1.092000000     5.860000000
O     3.411000000     2.693000000     3.081000000
H     3.120000000     3.385000000     3.675000000
H     3.344000000     3.083000000     2.209000000
O    -2.951000000     2.125000000    -4.996000000
H    -2.528000000     2.532000000    -5.752000000
H    -2.234000000     1.713000000    -4.514000000
O    -4.935000000    -0.174000000    -2.868000000
H    -5.395000000     0.456000000    -3.422000000
H    -4.608000000     0.346000000    -2.135000000
O    -4.225000000     7.254000000     1.383000000
H    -3.360000000     6.860000000     1.498000000
H    -4.671000000     6.675000000     0.765000000
O    -1.033000000    -6.916000000     1.661000000
H    -0.192000000    -6.524000000     1.427000000
H    -0.833000000    -7.483000000     2.406000000
O     6.348000000    -1.829000000     3.618000000
H     7.169000000    -2.051000000     3.179000000
H     5.787000000    -1.489000000     2.920000000
O    -0.615000000     0.977000000    -4.388000000
H    -0.400000000     0.053000000    -4.514000000
H    -0.479000000     1.374000000    -5.248000000
O    -3.821000000     4.182000000    -0.422000000
H    -2.869000000     4.103000000    -0.474000000
H    -4.122000000     4.055000000    -1.322000000
O    -2.644000000    -4.207000000    -4.573000000
H    -3.354000000    -3.759000000    -4.114000000
H    -2.568000000    -5.052000000    -4.132000000
O    -1.384000000    -3.325000000     3.399000000
H    -1.029000000    -2.436000000     3.412000000
H    -2.308000000    -3.210000000     3.177000000
O     0.148000000    -4.508000000    -2.495000000
H     0.891000000    -4.046000000    -2.106000000
H     0.412000000    -5.428000000    -2.495000000
O     0.714000000     5.300000000     3.226000000
H    -0.068000000     5.326000000     3.778000000
H     0.409000000     4.934000000     2.396000000
O     2.108000000    -1.141000000    -4.682000000
H     1.261000000    -1.558000000    -4.522000000
H     2.400000000    -1.505000000    -5.518000000
O     0.817000000     7.072000000     1.070000000
H     1.255000000     6.797000000     1.875000000
H     1.390000000     7.747000000     0.705000000
O    -4.490000000    -1.409000000     0.076000000
H    -4.677000000    -1.018000000    -0.777000000
H    -4.137000000    -0.689000000     0.598000000
O    -4.463000000     4.026000000    -3.060000000
H    -3.525000000     3.838000000    -3.038000000
H    -4.553000000     4.717000000    -3.715000000
O    -1.852000000     6.029000000     1.630000000
H    -1.583000000     5.119000000     1.506000000
H    -1.057000000     6.538000000     1.472000000
O    -0.977000000    -0.350000000     3.170000000
H    -0.864000000    -0.090000000     2.256000000
H    -0.404000000     0.241000000     3.659000000
O    -2.366000000    -6.148000000    -2.029000000
H    -2.364000000    -6.727000000    -2.791000000
H    -1.569000000    -5.626000000    -2.122000000
O     4.863000000     2.324000000    -0.270000000
H     4.015000000     2.652000000    -0.571000000
H     4.900000000     1.425000000    -0.595000000
O     4.748000000     0.300000000     2.674000000
H     4.773000000     0.231000000     1.720000000
H     4.269000000     1.111000000     2.843000000
O    -4.038000000    -3.143000000     2.214000000
H    -4.590000000    -2.396000000     2.445000000
H    -4.021000000    -3.142000000     1.257000000
O     0.951000000    -7.066000000    -2.150000000
H     1.777000000    -7.159000000    -2.625000000
H     0.898000000    -7.853000000    -1.607000000
O    -4.537000000    -2.851000000    -3.313000000
H    -5.295000000    -3.079000000    -3.852000000
H    -4.656000000    -1.923000000    -3.113000000
O     2.853000000     2.509000000    -1.804000000
H     2.620000000     1.600000000    -1.997000000
H     2.446000000     3.014000000    -2.507000000
O     5.613000000     4.874000000     0.678000000
H     6.277000000     4.620000000     0.037000000
H     4.863000000     4.312000000     0.482000000
O     3.382000000     5.010000000     4.528000000
H     2.567000000     5.365000000     4.173000000
H     3.755000000     5.730000000     5.036000000
O    -4.589000000     1.422000000    -0.620000000
H    -4.554000000     2.379000000    -0.615000000
H    -4.755000000     1.183000000     0.292000000
O    -0.412000000    -2.054000000    -4.220000000
H    -0.713000000    -2.741000000    -3.625000000
H    -1.115000000    -1.971000000    -4.864000000
O     4.616000000    -2.845000000    -0.353000000
H     5.235000000    -3.539000000    -0.580000000
H     4.219000000    -3.138000000     0.467000000
O     2.642000000     3.813000000     0.632000000
H     1.761000000     4.043000000     0.928000000
H     2.532000000     3.587000000    -0.292000000
O     5.783000000    -0.570000000    -0.211000000
H     5.120000000    -1.260000000    -0.186000000
H     6.552000000    -0.962000000     0.204000000
O     3.036000000     5.300000000    -3.415000000
H     3.427000000     6.170000000    -3.488000000
H     2.307000000     5.415000000    -2.806000000
O     2.693000000    -7.794000000     0.644000000
H     3.428000000    -7.508000000     0.101000000
H     2.202000000    -6.993000000     0.825000000
O    -1.275000000     5.752000000    -4.693000000
H    -0.964000000     5.531000000    -5.571000000
H    -1.146000000     4.952000000    -4.184000000
O     2.662000000    -3.545000000    -2.188000000
H     2.734000000    -3.944000000    -3.055000000
H     3.455000000    -3.016000000    -2.102000000
O    -1.045000000    -5.601000000     4.820000000
H    -1.153000000    -4.652000000     4.760000000
H    -1.367000000    -5.932000000     3.981000000
