158
-3044.92768
C     0.323000000    -0.691000000    -1.170000000
H     0.453000000    -1.190000000    -2.127000000
C    -0.967000000    -0.342000000    -0.798000000
H    -1.812000000    -0.501000000    -1.463000000
C    -1.153000000     0.263000000     0.394000000
H    -2.181000000     0.514000000     0.738000000
C    -0.014000000     0.446000000     1.270000000
H    -0.233000000     0.891000000     2.237000000
C     1.276000000     0.067000000     0.849000000
H     2.134000000     0.397000000     1.429000000
C     1.460000000    -0.449000000    -0.396000000
C     2.871000000    -0.650000000    -0.991000000
O     2.922000000    -1.054000000    -2.149000000
O     3.845000000    -0.603000000    -0.289000000
O     3.384000000    -3.766000000    -1.626000000
H     4.165000000    -3.480000000    -1.151000000
H     3.047000000    -2.969000000    -2.035000000
O    -4.672000000    -0.004000000    -1.869000000
H    -4.216000000    -0.600000000    -2.463000000
H    -5.264000000    -0.568000000    -1.372000000
O     3.990000000     1.123000000     3.746000000
H     4.774000000     0.795000000     3.306000000
H     3.571000000     0.341000000     4.105000000
O    -1.407000000    -0.207000000     5.124000000
H    -2.339000000    -0.066000000     5.293000000
H    -1.381000000    -0.974000000     4.552000000
O    -0.965000000    -0.959000000    -4.946000000
H    -0.226000000    -1.530000000    -4.739000000
H    -1.257000000    -1.248000000    -5.811000000
O     1.802000000    -0.815000000     5.878000000
H     2.727000000    -1.059000000     5.860000000
H     1.353000000    -1.544000000     5.449000000
O     2.152000000     0.648000000    -7.012000000
H     2.419000000    -0.265000000    -6.906000000
H     1.991000000     0.956000000    -6.120000000
O    -3.430000000     6.257000000    -0.029000000
H    -2.597000000     5.814000000     0.130000000
H    -3.216000000     7.189000000     0.006000000
O    -3.016000000     2.608000000    -2.294000000
H    -2.325000000     2.289000000    -2.874000000
H    -3.716000000     1.961000000    -2.376000000
O    -2.153000000    -3.418000000    -1.411000000
H    -2.745000000    -2.757000000    -1.770000000
H    -1.417000000    -3.438000000    -2.023000000
O     7.677000000    -1.004000000     0.984000000
H     8.425000000    -1.239000000     1.533000000
H     8.028000000    -0.993000000     0.094000000
O     0.991000000    -2.699000000    -5.564000000
H     0.926000000    -3.370000000    -6.244000000
H     1.927000000    -2.646000000    -5.369000000
O    -0.467000000     5.076000000     2.315000000
H     0.214000000     5.623000000     1.924000000
H    -0.444000000     4.265000000     1.806000000
O     5.695000000     1.418000000     0.440000000
H     6.347000000     0.811000000     0.090000000
H     4.877000000     1.163000000     0.014000000
O     1.983000000     2.626000000     2.645000000
H     1.210000000     2.424000000     3.173000000
H     2.675000000     2.080000000     3.017000000
O    -2.362000000    -3.589000000     4.415000000
H    -1.754000000    -3.185000000     3.796000000
H    -3.155000000    -3.747000000     3.902000000
O     0.486000000     2.395000000    -1.220000000
H     0.933000000     2.170000000    -2.036000000
H     0.109000000     1.569000000    -0.917000000
O     1.336000000    -3.524000000     0.376000000
H     2.271000000    -3.593000000     0.183000000
H     0.907000000    -3.663000000    -0.468000000
O     6.807000000    -3.940000000     0.836000000
H     6.600000000    -3.101000000     0.425000000
H     6.888000000    -3.737000000     1.768000000
O    -3.536000000    -1.905000000    -3.327000000
H    -2.916000000    -1.695000000    -4.025000000
H    -4.331000000    -2.177000000    -3.786000000
O     1.053000000    -5.007000000     2.508000000
H     0.300000000    -5.513000000     2.204000000
H     1.134000000    -4.293000000     1.875000000
O     5.311000000     0.300000000    -2.778000000
H     4.668000000    -0.266000000    -2.352000000
H     4.853000000     1.131000000    -2.903000000
O    -0.881000000     1.749000000    -3.785000000
H    -0.067000000     1.272000000    -3.623000000
H    -1.120000000     1.517000000    -4.683000000
O     1.024000000     5.093000000    -0.394000000
H     0.823000000     4.224000000    -0.742000000
H     1.027000000     5.664000000    -1.163000000
O     6.653000000     1.813000000     2.891000000
H     6.224000000     1.618000000     2.058000000
H     6.191000000     2.582000000     3.224000000
O    -0.115000000     1.894000000     4.480000000
H    -0.749000000     1.228000000     4.745000000
H    -0.374000000     2.678000000     4.964000000
O     3.446000000    -1.223000000    -4.787000000
H     4.187000000    -1.691000000    -5.171000000
H     3.439000000    -1.496000000    -3.870000000
O     0.710000000     1.299000000     7.390000000
H     0.878000000     1.180000000     6.455000000
H     1.117000000     0.538000000     7.805000000
O    -5.530000000     0.681000000     2.360000000
H    -6.228000000     0.028000000     2.312000000
H    -5.366000000     0.925000000     1.449000000
O     5.882000000    -2.338000000    -1.089000000
H     5.324000000    -1.602000000    -0.837000000
H     6.056000000    -2.199000000    -2.020000000
O    -6.250000000     2.043000000    -0.455000000
H    -5.794000000     1.438000000    -1.041000000
H    -5.683000000     2.813000000    -0.417000000
O    -4.047000000     3.544000000     1.825000000
H    -3.177000000     3.564000000     1.426000000
H    -3.937000000     3.995000000     2.662000000
O    -4.126000000     0.272000000     5.026000000
H    -4.080000000     1.147000000     5.412000000
H    -4.436000000     0.421000000     4.132000000
O     3.413000000     3.073000000     0.447000000
H     3.426000000     4.029000000     0.492000000
H     2.787000000     2.810000000     1.122000000
O     7.146000000    -0.354000000    -4.605000000
H     6.861000000    -1.252000000    -4.774000000
H     6.511000000    -0.017000000    -3.973000000
O     4.934000000    -1.594000000     1.739000000
H     5.782000000    -1.154000000     1.682000000
H     4.442000000    -1.264000000     0.987000000
O    -1.713000000     3.560000000     0.029000000
H    -2.189000000     2.989000000    -0.573000000
H    -0.795000000     3.310000000    -0.079000000
O     1.935000000     1.232000000    -4.089000000
H     2.385000000     0.431000000    -4.357000000
H     2.544000000     1.659000000    -3.487000000
O    -6.027000000    -1.685000000    -0.218000000
H    -6.548000000    -1.474000000     0.557000000
H    -5.781000000    -2.602000000    -0.099000000
O     0.495000000    -3.537000000    -2.848000000
H     0.414000000    -3.203000000    -3.741000000
H     1.321000000    -4.021000000    -2.847000000
O     4.027000000    -6.145000000    -2.730000000
H     3.666000000    -6.960000000    -2.381000000
H     3.663000000    -5.461000000    -2.168000000
O    -4.630000000     4.519000000    -1.800000000
H    -3.944000000     3.883000000    -2.005000000
H    -4.191000000     5.178000000    -1.262000000
O    -4.653000000    -3.887000000     3.011000000
H    -4.661000000    -4.014000000     2.062000000
H    -5.487000000    -3.458000000     3.202000000
O     3.594000000     2.546000000    -2.257000000
H     3.585000000     2.628000000    -1.303000000
H     3.636000000     3.448000000    -2.574000000
O     2.585000000     4.891000000     4.006000000
H     2.383000000     4.171000000     3.410000000
H     2.677000000     5.655000000     3.437000000
O    -1.005000000    -2.030000000     2.745000000
H    -0.187000000    -1.576000000     2.547000000
H    -1.315000000    -2.347000000     1.897000000
O    -6.468000000     2.781000000     4.406000000
H    -5.820000000     2.613000000     5.090000000
H    -6.157000000     2.278000000     3.653000000
O     5.115000000    -3.555000000     3.751000000
H     4.566000000    -4.283000000     3.458000000
H     4.982000000    -2.874000000     3.091000000
