158
-3073.63954
C     1.168000000    -0.230000000    -0.786000000
H     1.973000000    -0.401000000    -1.496000000
C     0.031000000    -0.931000000    -0.901000000
H    -0.111000000    -1.652000000    -1.702000000
C    -1.041000000    -0.686000000    -0.068000000
H    -1.872000000    -1.394000000    -0.036000000
C    -0.854000000     0.291000000     0.916000000
H    -1.716000000     0.559000000     1.522000000
C     0.314000000     0.963000000     1.055000000
H     0.455000000     1.620000000     1.910000000
C     1.370000000     0.790000000     0.132000000
C     2.675000000     1.579000000     0.253000000
O     3.664000000     1.057000000    -0.252000000
O     2.745000000     2.506000000     1.051000000
O     4.473000000    -1.316000000     0.554000000
H     4.179000000    -0.474000000     0.207000000
H     5.411000000    -1.340000000     0.363000000
O    -4.751000000     1.524000000    -0.685000000
H    -4.764000000     0.623000000    -1.008000000
H    -5.636000000     1.671000000    -0.351000000
O    -1.041000000     1.050000000     4.510000000
H    -1.626000000     1.042000000     5.267000000
H    -0.554000000     0.229000000     4.574000000
O     4.354000000     3.524000000    -4.013000000
H     5.030000000     3.896000000    -3.447000000
H     4.263000000     2.619000000    -3.716000000
O    -5.111000000    -0.967000000    -0.858000000
H    -4.674000000    -1.559000000    -1.470000000
H    -5.112000000    -1.442000000    -0.026000000
O    -2.897000000     1.571000000    -5.246000000
H    -2.062000000     1.994000000    -5.044000000
H    -3.012000000     1.705000000    -6.187000000
O     3.552000000    -0.396000000    -4.444000000
H     3.897000000     0.156000000    -3.742000000
H     3.897000000    -1.268000000    -4.255000000
O    -3.074000000     4.734000000     1.483000000
H    -2.382000000     4.455000000     2.082000000
H    -2.909000000     4.240000000     0.680000000
O    -2.857000000    -2.928000000    -2.076000000
H    -2.480000000    -2.105000000    -2.387000000
H    -3.031000000    -3.429000000    -2.873000000
O    -5.080000000    -4.678000000    -3.923000000
H    -5.521000000    -5.518000000    -4.051000000
H    -4.215000000    -4.799000000    -4.315000000
O     2.987000000    -0.364000000     2.804000000
H     3.629000000    -0.772000000     3.385000000
H     3.446000000    -0.270000000     1.969000000
O    -2.863000000     4.411000000     5.299000000
H    -3.082000000     4.047000000     4.441000000
H    -2.649000000     5.327000000     5.123000000
O     7.005000000     0.491000000    -1.844000000
H     7.091000000     1.412000000    -1.599000000
H     7.132000000     0.012000000    -1.024000000
O     6.134000000     6.198000000     1.234000000
H     5.249000000     5.835000000     1.207000000
H     6.050000000     6.995000000     1.757000000
O    -0.432000000     3.939000000     3.054000000
H    -0.212000000     3.095000000     3.450000000
H     0.270000000     4.525000000     3.335000000
O    -5.374000000    -3.828000000    -1.343000000
H    -4.462000000    -3.544000000    -1.289000000
H    -5.398000000    -4.415000000    -2.099000000
O    -0.917000000     4.662000000    -1.600000000
H    -1.356000000     3.815000000    -1.673000000
H    -0.382000000     4.587000000    -0.809000000
O    -1.608000000    -5.178000000     2.078000000
H    -2.356000000    -5.773000000     2.017000000
H    -1.454000000    -4.895000000     1.176000000
O    -1.350000000    -2.615000000     3.486000000
H    -0.565000000    -2.269000000     3.062000000
H    -1.590000000    -3.378000000     2.961000000
O    -2.175000000    -0.885000000    -3.897000000
H    -1.355000000    -0.459000000    -4.146000000
H    -2.824000000    -0.182000000    -3.909000000
O     0.811000000    -1.730000000     2.185000000
H     1.589000000    -1.312000000     2.554000000
H     0.436000000    -1.068000000     1.604000000
O    -4.289000000     0.179000000     1.870000000
H    -5.225000000     0.000000000     1.964000000
H    -4.221000000     0.677000000     1.055000000
O     6.070000000     4.764000000    -2.149000000
H     5.854000000     4.268000000    -1.359000000
H     5.619000000     5.600000000    -2.038000000
O     0.901000000    -1.091000000    -4.174000000
H     1.828000000    -0.885000000    -4.293000000
H     0.873000000    -2.047000000    -4.123000000
O    -1.662000000    -1.483000000    -6.793000000
H    -1.727000000    -1.819000000    -5.899000000
H    -2.548000000    -1.185000000    -7.002000000
O    -2.186000000     2.183000000    -1.564000000
H    -1.656000000     1.455000000    -1.242000000
H    -3.077000000     1.974000000    -1.285000000
O     1.274000000     1.104000000     6.768000000
H     0.907000000     1.708000000     7.413000000
H     0.529000000     0.854000000     6.222000000
O     3.646000000     5.008000000     0.916000000
H     3.625000000     4.079000000     0.687000000
H     2.742000000     5.216000000     1.153000000
O     7.404000000     3.795000000     1.961000000
H     6.614000000     3.321000000     2.218000000
H     7.107000000     4.692000000     1.809000000
O     1.900000000    -1.157000000    -6.872000000
H     1.089000000    -1.226000000    -6.368000000
H     2.522000000    -0.752000000    -6.268000000
O     4.573000000     1.271000000    -2.700000000
H     3.959000000     1.264000000    -1.965000000
H     5.395000000     0.952000000    -2.328000000
O    -3.675000000     2.330000000     3.640000000
H    -4.037000000     1.768000000     2.954000000
H    -2.759000000     2.061000000     3.712000000
O     7.091000000    -0.768000000     0.534000000
H     7.646000000    -0.240000000     1.108000000
H     7.491000000    -1.638000000     0.549000000
O     0.989000000     7.193000000     0.799000000
H     1.028000000     6.440000000     0.209000000
H     1.112000000     7.951000000     0.228000000
O    -0.038000000    -5.164000000    -3.124000000
H     0.626000000    -5.800000000    -2.858000000
H     0.343000000    -4.723000000    -3.884000000
O     1.767000000    -4.137000000     0.952000000
H     0.904000000    -4.341000000     0.591000000
H     1.623000000    -3.361000000     1.494000000
O     0.682000000     4.033000000     0.487000000
H     0.113000000     4.037000000     1.256000000
H     1.338000000     3.362000000     0.678000000
O     5.798000000     2.695000000    -0.357000000
H     4.945000000     2.261000000    -0.318000000
H     6.029000000     2.850000000     0.559000000
O     5.091000000     2.489000000     2.632000000
H     4.913000000     2.712000000     3.546000000
H     4.224000000     2.409000000     2.233000000
O    -0.059000000     1.773000000    -4.727000000
H     0.372000000     0.936000000    -4.551000000
H     0.619000000     2.429000000    -4.566000000
O    -5.220000000     2.224000000    -3.671000000
H    -4.333000000     2.071000000    -3.995000000
H    -5.107000000     2.828000000    -2.937000000
O    -2.447000000    -4.910000000    -4.420000000
H    -2.247000000    -5.216000000    -5.305000000
H    -1.620000000    -4.990000000    -3.946000000
O     1.206000000     6.286000000     3.290000000
H     2.082000000     6.324000000     3.674000000
H     1.325000000     6.593000000     2.391000000
O     3.559000000    -3.358000000    -1.112000000
H     3.773000000    -2.611000000    -0.554000000
H     2.752000000    -3.712000000    -0.738000000
O    -0.963000000    -4.516000000    -0.484000000
H    -1.703000000    -4.020000000    -0.837000000
H    -0.765000000    -5.164000000    -1.160000000
O     4.123000000    -2.933000000    -3.687000000
H     4.045000000    -3.746000000    -4.186000000
H     4.129000000    -3.214000000    -2.772000000
O    -6.958000000    -0.286000000     2.477000000
H    -7.275000000    -1.122000000     2.818000000
H    -7.409000000     0.374000000     3.004000000
O    -3.944000000    -1.277000000     4.268000000
H    -3.149000000    -1.803000000     4.181000000
H    -3.957000000    -0.731000000     3.482000000
