158
-3037.28409
C     1.186000000    -0.501000000    -0.713000000
H     2.035000000    -0.871000000    -1.283000000
C    -0.170000000    -0.617000000    -1.069000000
H    -0.514000000    -1.204000000    -1.917000000
C    -1.167000000    -0.075000000    -0.299000000
H    -2.172000000    -0.167000000    -0.605000000
C    -0.854000000     0.413000000     0.945000000
H    -1.618000000     0.680000000     1.671000000
C     0.476000000     0.651000000     1.182000000
H     0.647000000     1.153000000     2.130000000
C     1.506000000     0.245000000     0.386000000
C     2.951000000     0.619000000     0.590000000
O     3.763000000     0.534000000    -0.328000000
O     3.319000000     0.906000000     1.710000000
O     4.074000000    -1.616000000     5.320000000
H     4.009000000    -2.422000000     4.808000000
H     4.777000000    -1.787000000     5.947000000
O     4.708000000     1.355000000     6.253000000
H     4.775000000     1.440000000     5.302000000
H     3.908000000     0.848000000     6.393000000
O     2.406000000    -0.166000000     3.995000000
H     2.845000000     0.278000000     3.270000000
H     3.115000000    -0.575000000     4.490000000
O    -1.231000000    -2.298000000     5.241000000
H    -0.993000000    -2.285000000     4.314000000
H    -2.114000000    -2.668000000     5.257000000
O    -2.343000000     2.969000000     2.555000000
H    -2.515000000     3.353000000     1.695000000
H    -1.578000000     3.444000000     2.881000000
O     2.778000000     2.236000000    -2.273000000
H     3.448000000     2.846000000    -2.581000000
H     3.241000000     1.655000000    -1.670000000
O     2.150000000    -3.760000000    -2.381000000
H     1.627000000    -3.250000000    -1.763000000
H     3.055000000    -3.514000000    -2.189000000
O     4.394000000    -1.935000000    -1.836000000
H     4.860000000    -1.715000000    -2.642000000
H     4.154000000    -1.088000000    -1.459000000
O    -0.377000000     0.911000000    -5.087000000
H    -1.093000000     1.153000000    -4.499000000
H    -0.319000000     1.639000000    -5.705000000
O     6.032000000     1.676000000    -1.376000000
H     5.678000000     2.537000000    -1.153000000
H     5.380000000     1.057000000    -1.046000000
O    -1.186000000    -2.248000000     2.417000000
H    -2.058000000    -2.472000000     2.091000000
H    -1.005000000    -1.386000000     2.044000000
O    -2.061000000    -1.091000000    -5.082000000
H    -1.875000000    -1.943000000    -4.689000000
H    -1.289000000    -0.561000000    -4.882000000
O     1.270000000     4.472000000     0.599000000
H     0.831000000     3.786000000     0.096000000
H     1.390000000     5.187000000    -0.026000000
O     6.044000000    -1.394000000    -3.875000000
H     6.066000000    -0.862000000    -4.671000000
H     6.072000000    -2.297000000    -4.190000000
O     5.421000000     1.605000000     3.118000000
H     4.681000000     1.493000000     2.521000000
H     5.902000000     0.779000000     3.062000000
O     1.318000000     4.152000000     3.261000000
H     0.531000000     4.619000000     3.540000000
H     1.317000000     4.228000000     2.307000000
O     1.499000000    -2.747000000     2.899000000
H     0.564000000    -2.546000000     2.873000000
H     1.891000000    -2.004000000     3.359000000
O    -0.069000000    -3.757000000    -0.421000000
H     0.118000000    -4.334000000     0.319000000
H    -0.803000000    -3.218000000    -0.125000000
O    -3.217000000    -3.413000000     1.264000000
H    -4.164000000    -3.278000000     1.289000000
H    -2.980000000    -3.287000000     0.345000000
O    -2.670000000    -2.922000000    -1.368000000
H    -1.976000000    -3.140000000    -1.990000000
H    -3.481000000    -3.048000000    -1.859000000
O     4.351000000     4.494000000    -2.517000000
H     3.772000000     5.252000000    -2.603000000
H     5.197000000     4.801000000    -2.841000000
O    -4.147000000    -0.850000000     2.966000000
H    -5.059000000    -0.605000000     3.126000000
H    -3.738000000    -0.050000000     2.637000000
O    -4.407000000     3.458000000    -3.274000000
H    -3.810000000     3.106000000    -3.933000000
H    -4.186000000     4.388000000    -3.223000000
O     6.610000000    -1.367000000     3.326000000
H     6.888000000    -2.267000000     3.497000000
H     5.857000000    -1.456000000     2.741000000
O     4.229000000     5.979000000     2.178000000
H     3.951000000     5.254000000     2.738000000
H     4.832000000     5.580000000     1.551000000
O    -5.269000000    -3.354000000    -2.374000000
H    -6.010000000    -2.866000000    -2.733000000
H    -4.864000000    -3.770000000    -3.136000000
O    -4.217000000     0.488000000    -4.832000000
H    -3.511000000    -0.156000000    -4.885000000
H    -3.804000000     1.316000000    -5.081000000
O     1.205000000     1.973000000     4.848000000
H     1.354000000     2.525000000     4.081000000
H     1.487000000     1.100000000     4.574000000
O     7.338000000     3.412000000     3.991000000
H     6.628000000     2.803000000     3.788000000
H     6.973000000     3.993000000     4.658000000
O    -6.728000000     0.425000000     2.643000000
H    -6.515000000     0.296000000     1.719000000
H    -6.161000000     1.144000000     2.921000000
O     0.385000000    -5.732000000    -2.895000000
H     1.067000000    -5.063000000    -2.827000000
H     0.329000000    -6.107000000    -2.016000000
O    -5.936000000     0.057000000    -0.035000000
H    -6.085000000    -0.249000000    -0.929000000
H    -5.526000000     0.916000000    -0.141000000
O     0.100000000     2.589000000     7.362000000
H    -0.078000000     1.723000000     7.729000000
H     0.588000000     2.413000000     6.558000000
O    -3.720000000    -3.225000000     4.471000000
H    -3.364000000    -3.962000000     3.974000000
H    -3.886000000    -2.550000000     3.813000000
O    -5.150000000     2.457000000     2.988000000
H    -4.244000000     2.604000000     2.715000000
H    -5.260000000     3.013000000     3.759000000
O    -1.420000000    -3.542000000    -3.918000000
H    -2.003000000    -4.167000000    -4.349000000
H    -0.665000000    -4.065000000    -3.648000000
O    -2.275000000     4.404000000     0.220000000
H    -1.483000000     4.051000000    -0.185000000
H    -2.452000000     5.211000000    -0.265000000
O     8.515000000     1.249000000    -2.329000000
H     8.427000000     0.340000000    -2.043000000
H     7.627000000     1.603000000    -2.278000000
O     4.772000000    -1.586000000     1.266000000
H     4.605000000    -2.160000000     0.518000000
H     4.237000000    -0.811000000     1.097000000
O     0.228000000     2.593000000    -1.203000000
H     1.030000000     2.291000000    -1.627000000
H    -0.151000000     1.804000000    -0.816000000
O    -6.300000000     0.269000000    -2.800000000
H    -5.719000000     0.341000000    -3.557000000
H    -7.173000000     0.160000000    -3.178000000
O     7.877000000    -1.544000000    -1.341000000
H     7.043000000    -1.603000000    -1.808000000
H     7.672000000    -1.820000000    -0.448000000
O     6.042000000     5.295000000    -0.018000000
H     6.798000000     4.714000000    -0.104000000
H     5.287000000     4.735000000    -0.199000000
O     2.511000000     0.907000000    -4.618000000
H     1.575000000     0.707000000    -4.638000000
H     2.630000000     1.415000000    -3.816000000
O    -6.027000000    -2.774000000     0.172000000
H    -5.639000000    -3.089000000    -0.645000000
H    -5.856000000    -1.832000000     0.170000000
O    -4.817000000     2.610000000    -0.701000000
H    -4.552000000     2.844000000    -1.591000000
H    -4.898000000     3.448000000    -0.247000000
O     3.353000000    -4.567000000     2.229000000
H     3.317000000    -3.654000000     1.945000000
H     3.205000000    -4.531000000     3.174000000
O     3.866000000     3.417000000     0.696000000
H     2.959000000     3.704000000     0.801000000
H     3.824000000     2.463000000     0.763000000
