158
-3043.89684
C     1.062000000    -0.919000000    -0.409000000
H     1.726000000    -1.669000000    -0.831000000
C    -0.055000000    -0.606000000    -1.197000000
H    -0.209000000    -0.993000000    -2.201000000
C    -1.023000000     0.161000000    -0.612000000
H    -1.875000000     0.368000000    -1.217000000
C    -0.750000000     0.912000000     0.517000000
H    -1.521000000     1.583000000     0.886000000
C     0.391000000     0.692000000     1.252000000
H     0.686000000     1.229000000     2.150000000
C     1.270000000    -0.267000000     0.801000000
C     2.500000000    -0.455000000     1.697000000
O     3.533000000    -0.753000000     1.088000000
O     2.403000000    -0.359000000     2.883000000
O    -0.463000000    -4.515000000     1.188000000
H     0.448000000    -4.621000000     0.912000000
H    -0.406000000    -4.083000000     2.040000000
O     4.084000000    -2.193000000     4.424000000
H     3.527000000    -1.931000000     5.157000000
H     3.823000000    -1.616000000     3.706000000
O    -2.606000000     5.248000000    -0.598000000
H    -2.207000000     6.116000000    -0.531000000
H    -3.119000000     5.282000000    -1.405000000
O     4.274000000     1.217000000     6.331000000
H     4.157000000     0.285000000     6.519000000
H     4.414000000     1.255000000     5.385000000
O    -7.746000000    -0.877000000    -2.649000000
H    -7.527000000    -0.436000000    -1.829000000
H    -7.421000000    -0.290000000    -3.331000000
O     1.207000000     0.400000000     5.515000000
H     1.558000000     0.282000000     4.632000000
H     1.520000000    -0.363000000     6.001000000
O     3.450000000    -2.159000000    -3.458000000
H     4.245000000    -2.027000000    -3.975000000
H     3.549000000    -3.034000000    -3.085000000
O    -0.425000000     4.896000000     3.870000000
H    -1.094000000     4.665000000     3.226000000
H     0.358000000     4.428000000     3.579000000
O     2.576000000     0.489000000    -2.797000000
H     1.980000000     0.627000000    -2.061000000
H     2.907000000    -0.401000000    -2.673000000
O    -4.553000000     1.037000000    -1.143000000
H    -3.806000000     1.476000000    -1.550000000
H    -4.329000000     0.106000000    -1.174000000
O    -2.603000000     2.912000000    -1.969000000
H    -2.291000000     3.093000000    -2.856000000
H    -2.433000000     3.720000000    -1.485000000
O    -6.148000000     0.050000000    -4.765000000
H    -5.427000000     0.579000000    -4.423000000
H    -5.729000000    -0.563000000    -5.369000000
O     2.704000000    -4.506000000    -0.100000000
H     3.125000000    -3.700000000    -0.402000000
H     2.805000000    -4.487000000     0.851000000
O     4.526000000    -2.477000000    -0.788000000
H     5.229000000    -3.011000000    -0.417000000
H     4.258000000    -1.902000000    -0.070000000
O    -0.418000000    -4.675000000    -3.527000000
H    -0.050000000    -5.084000000    -4.310000000
H     0.249000000    -4.804000000    -2.854000000
O    -4.897000000    -3.699000000    -5.085000000
H    -4.127000000    -3.226000000    -4.770000000
H    -5.046000000    -3.356000000    -5.966000000
O     4.647000000     1.605000000     0.595000000
H     3.834000000     2.105000000     0.678000000
H     4.381000000     0.693000000     0.714000000
O     1.599000000     3.072000000     4.940000000
H     1.377000000     2.170000000     5.169000000
H     1.191000000     3.601000000     5.626000000
O     7.049000000     1.118000000    -0.599000000
H     7.495000000     1.135000000     0.248000000
H     6.120000000     1.190000000    -0.381000000
O     2.372000000     2.952000000     0.392000000
H     2.296000000     3.886000000     0.587000000
H     1.866000000     2.834000000    -0.411000000
O    -2.994000000    -2.697000000     1.620000000
H    -2.054000000    -2.539000000     1.707000000
H    -3.210000000    -2.380000000     0.742000000
O     0.146000000    -2.536000000     2.999000000
H    -0.151000000    -1.638000000     2.851000000
H     0.506000000    -2.526000000     3.886000000
O     2.953000000    -4.429000000     2.619000000
H     3.525000000    -5.132000000     2.927000000
H     3.078000000    -3.723000000     3.253000000
O    -4.014000000    -1.726000000    -0.661000000
H    -3.259000000    -1.909000000    -1.219000000
H    -4.737000000    -2.200000000    -1.072000000
O    -1.730000000     3.092000000    -4.516000000
H    -1.751000000     3.845000000    -5.106000000
H    -0.806000000     2.848000000    -4.471000000
O    -1.240000000    -0.421000000    -5.024000000
H    -0.355000000    -0.683000000    -4.768000000
H    -1.107000000     0.283000000    -5.659000000
O     6.958000000     2.046000000     3.757000000
H     6.413000000     2.816000000     3.593000000
H     6.365000000     1.304000000     3.644000000
O    -4.365000000    -1.232000000    -6.255000000
H    -4.062000000    -1.686000000    -7.042000000
H    -3.632000000    -0.667000000    -6.008000000
O     5.034000000     4.152000000     2.265000000
H     4.490000000     3.437000000     2.594000000
H     4.952000000     4.097000000     1.313000000
O    -3.638000000     1.052000000    -4.236000000
H    -3.502000000     1.940000000    -3.906000000
H    -2.787000000     0.626000000    -4.136000000
O    -3.930000000    -0.238000000     2.931000000
H    -3.488000000    -0.849000000     2.342000000
H    -4.862000000    -0.362000000     2.750000000
O     6.586000000    -0.990000000    -2.093000000
H     5.676000000    -1.126000000    -1.831000000
H     6.857000000    -0.204000000    -1.619000000
O     6.668000000    -3.127000000     4.267000000
H     5.800000000    -2.759000000     4.438000000
H     7.273000000    -2.521000000     4.695000000
O    -2.615000000    -2.893000000    -3.989000000
H    -1.998000000    -2.182000000    -4.160000000
H    -2.063000000    -3.663000000    -3.857000000
O    -2.443000000     1.523000000     5.219000000
H    -2.594000000     1.572000000     4.275000000
H    -3.153000000     0.971000000     5.547000000
O    -6.722000000     2.752000000    -1.507000000
H    -5.928000000     2.217000000    -1.477000000
H    -6.588000000     3.418000000    -0.833000000
O    -2.394000000     4.426000000     2.007000000
H    -2.893000000     3.610000000     1.963000000
H    -2.482000000     4.807000000     1.133000000
O     2.690000000     1.053000000    -5.860000000
H     3.583000000     0.782000000    -6.074000000
H     2.343000000     0.337000000    -5.327000000
O     5.563000000    -0.216000000     3.020000000
H     5.792000000    -1.108000000     2.757000000
H     4.874000000     0.044000000     2.409000000
O     1.213000000    -1.472000000    -4.701000000
H     1.934000000    -1.802000000    -4.164000000
H     1.305000000    -1.932000000    -5.535000000
O     0.966000000     2.622000000    -1.768000000
H     1.018000000     2.660000000    -2.723000000
H     0.049000000     2.418000000    -1.586000000
O    -6.478000000    -0.434000000     1.981000000
H    -6.370000000    -1.362000000     1.774000000
H    -7.057000000    -0.100000000     1.295000000
O    -6.050000000    -2.909000000    -2.219000000
H    -5.740000000    -3.209000000    -3.074000000
H    -6.857000000    -2.431000000    -2.412000000
O     1.304000000    -6.549000000    -1.218000000
H     1.841000000    -5.931000000    -0.722000000
H     1.820000000    -6.737000000    -2.002000000
O     4.400000000     2.516000000    -2.499000000
H     3.965000000     1.688000000    -2.704000000
H     4.017000000     2.787000000    -1.664000000
O    -4.273000000     2.059000000     1.515000000
H    -4.176000000     1.880000000     0.580000000
H    -4.205000000     1.200000000     1.932000000
O     2.824000000    -1.637000000     6.885000000
H     2.624000000    -1.129000000     7.671000000
H     2.968000000    -2.527000000     7.205000000
O     3.427000000     2.085000000     3.465000000
H     2.816000000     2.440000000     4.110000000
H     3.066000000     1.228000000     3.239000000
