158
-3013.90244
C     0.957000000    -1.030000000    -0.383000000
H     1.539000000    -1.902000000    -0.668000000
C    -0.347000000    -0.991000000    -0.831000000
H    -0.788000000    -1.874000000    -1.287000000
C    -1.191000000     0.012000000    -0.327000000
H    -2.228000000     0.014000000    -0.551000000
C    -0.682000000     1.036000000     0.461000000
H    -1.370000000     1.766000000     0.881000000
C     0.709000000     1.122000000     0.671000000
H     1.131000000     1.891000000     1.313000000
C     1.557000000     0.058000000     0.321000000
C     2.958000000     0.066000000     0.731000000
O     3.683000000    -0.764000000     0.286000000
O     3.464000000     0.946000000     1.390000000
O     4.899000000    -1.850000000     4.155000000
H     5.125000000    -2.603000000     3.611000000
H     4.508000000    -2.231000000     4.941000000
O     6.326000000     2.911000000     4.538000000
H     5.968000000     2.092000000     4.198000000
H     5.557000000     3.447000000     4.732000000
O     2.404000000    -0.362000000     3.890000000
H     2.828000000     0.331000000     3.385000000
H     3.095000000    -1.007000000     4.039000000
O    -7.172000000     3.467000000    -0.358000000
H    -8.004000000     3.516000000     0.113000000
H    -7.325000000     2.822000000    -1.048000000
O     6.858000000    -2.635000000     0.209000000
H     6.855000000    -2.979000000    -0.684000000
H     6.019000000    -2.912000000     0.576000000
O    -3.000000000     3.554000000     1.970000000
H    -3.574000000     4.272000000     2.236000000
H    -2.415000000     3.943000000     1.320000000
O     3.327000000    -1.679000000    -5.064000000
H     3.679000000    -1.545000000    -4.184000000
H     2.388000000    -1.516000000    -4.973000000
O     4.811000000     2.279000000    -2.201000000
H     5.128000000     3.169000000    -2.357000000
H     4.858000000     2.172000000    -1.250000000
O    -2.105000000     4.434000000    -4.104000000
H    -2.556000000     3.841000000    -4.705000000
H    -2.766000000     5.084000000    -3.868000000
O     2.378000000    -5.496000000    -1.472000000
H     2.451000000    -5.187000000    -2.375000000
H     2.778000000    -4.802000000    -0.948000000
O     4.334000000    -1.582000000    -2.638000000
H     5.150000000    -2.075000000    -2.723000000
H     4.371000000    -1.209000000    -1.757000000
O    -0.232000000     0.593000000    -4.296000000
H     0.160000000     1.004000000    -3.525000000
H     0.329000000     0.864000000    -5.023000000
O    -0.532000000    -2.146000000     1.991000000
H    -1.445000000    -1.860000000     1.989000000
H    -0.203000000    -1.901000000     1.126000000
O     0.727000000    -1.963000000    -4.948000000
H     0.081000000    -2.529000000    -5.372000000
H     0.247000000    -1.159000000    -4.749000000
O    -1.578000000     5.131000000     0.245000000
H    -1.082000000     4.853000000    -0.525000000
H    -0.927000000     5.539000000     0.815000000
O    -4.421000000    -2.027000000    -5.501000000
H    -4.199000000    -1.483000000    -4.745000000
H    -4.380000000    -1.429000000    -6.247000000
O     0.168000000    -0.459000000     5.479000000
H     0.217000000     0.455000000     5.758000000
H     0.741000000    -0.507000000     4.714000000
O     6.733000000     2.852000000     0.853000000
H     5.918000000     2.996000000     1.335000000
H     6.662000000     1.955000000     0.527000000
O     2.029000000     5.246000000     0.016000000
H     1.291000000     4.973000000    -0.529000000
H     2.238000000     6.129000000    -0.289000000
O     1.564000000    -3.794000000     2.928000000
H     0.992000000    -3.332000000     2.315000000
H     1.428000000    -3.351000000     3.765000000
O    -3.176000000    -2.108000000     1.674000000
H    -3.760000000    -1.794000000     2.365000000
H    -3.484000000    -1.666000000     0.882000000
O    -2.949000000     2.225000000    -5.428000000
H    -2.026000000     2.350000000    -5.646000000
H    -2.981000000     1.371000000    -4.997000000
O    -2.201000000    -2.923000000    -3.056000000
H    -2.875000000    -3.588000000    -3.199000000
H    -1.612000000    -3.014000000    -3.805000000
O    -4.785000000    -1.436000000     3.722000000
H    -5.456000000    -0.791000000     3.497000000
H    -4.790000000    -1.462000000     4.679000000
O     0.171000000    -4.742000000    -0.016000000
H     0.787000000    -5.062000000    -0.676000000
H     0.514000000    -5.074000000     0.813000000
O     3.509000000    -3.427000000     0.647000000
H     3.138000000    -3.537000000     1.523000000
H     3.602000000    -2.481000000     0.543000000
O    -3.521000000     2.297000000    -2.078000000
H    -3.433000000     1.433000000    -2.481000000
H    -3.113000000     2.895000000    -2.704000000
O    -2.309000000    -4.839000000     1.302000000
H    -1.703000000    -5.018000000     0.583000000
H    -2.412000000    -3.887000000     1.298000000
O     5.043000000     0.774000000     3.420000000
H     5.149000000    -0.166000000     3.564000000
H     4.595000000     0.838000000     2.576000000
O    -0.065000000     3.853000000     4.315000000
H     0.301000000     3.709000000     5.187000000
H    -0.042000000     2.991000000     3.900000000
O     4.800000000     5.930000000     2.554000000
H     4.621000000     5.328000000     1.832000000
H     4.107000000     6.587000000     2.496000000
O    -2.925000000    -0.416000000    -3.605000000
H    -2.012000000    -0.143000000    -3.507000000
H    -2.952000000    -1.298000000    -3.234000000
O     3.188000000     2.497000000     4.431000000
H     3.912000000     1.959000000     4.111000000
H     2.693000000     1.915000000     5.007000000
O    -4.662000000    -1.154000000    -0.562000000
H    -4.872000000    -1.059000000    -1.491000000
H    -4.874000000    -0.302000000    -0.181000000
O    -6.264000000     1.301000000     2.239000000
H    -7.050000000     1.068000000     1.745000000
H    -5.646000000     1.605000000     1.575000000
O    -4.872000000     2.893000000     3.926000000
H    -4.130000000     2.999000000     3.330000000
H    -5.485000000     2.334000000     3.448000000
O    -5.312000000     3.243000000    -4.007000000
H    -4.784000000     2.743000000    -4.629000000
H    -5.396000000     4.109000000    -4.406000000
O    -0.126000000     4.622000000    -2.148000000
H     0.555000000     4.007000000    -2.420000000
H    -0.824000000     4.506000000    -2.793000000
O     6.216000000     0.329000000     0.113000000
H     6.640000000    -0.489000000     0.372000000
H     5.280000000     0.154000000     0.208000000
O     1.277000000     2.168000000    -2.060000000
H     2.020000000     1.711000000    -2.453000000
H     1.146000000     1.733000000    -1.218000000
O    -6.282000000    -0.654000000    -3.323000000
H    -6.192000000    -1.586000000    -3.521000000
H    -6.423000000    -0.240000000    -4.175000000
O    -5.312000000    -4.422000000     2.718000000
H    -5.097000000    -3.546000000     3.038000000
H    -5.590000000    -4.285000000     1.813000000
O     3.008000000    -4.718000000    -4.067000000
H     2.546000000    -3.880000000    -4.070000000
H     3.528000000    -4.708000000    -4.870000000
O    -7.354000000     1.842000000    -2.583000000
H    -6.917000000     1.038000000    -2.862000000
H    -7.283000000     2.427000000    -3.337000000
O     5.613000000     0.241000000    -3.978000000
H     5.281000000     0.786000000    -3.265000000
H     5.306000000    -0.641000000    -3.768000000
O    -6.787000000    -3.069000000     0.187000000
H    -7.415000000    -2.412000000    -0.114000000
H    -5.972000000    -2.582000000     0.311000000
O    -4.461000000     1.583000000     0.233000000
H    -4.639000000     1.808000000    -0.680000000
H    -3.906000000     2.294000000     0.551000000
O     4.070000000     3.726000000     1.194000000
H     3.425000000     4.249000000     0.718000000
H     3.639000000     2.882000000     1.333000000
