158
-3060.26008
C     1.085000000     1.091000000     0.046000000
H     1.927000000     1.767000000     0.171000000
C     1.181000000    -0.243000000     0.429000000
H     2.075000000    -0.671000000     0.874000000
C     0.143000000    -1.157000000     0.337000000
H     0.218000000    -2.256000000     0.565000000
C    -1.134000000    -0.678000000    -0.085000000
H    -1.976000000    -1.360000000    -0.167000000
C    -1.286000000     0.614000000    -0.514000000
H    -2.254000000     0.952000000    -0.876000000
C    -0.165000000     1.493000000    -0.405000000
C    -0.364000000     2.958000000    -0.754000000
O    -1.411000000     3.253000000    -1.356000000
O     0.495000000     3.790000000    -0.455000000
O    -1.727000000     1.965000000    -3.808000000
H    -1.567000000     1.829000000    -2.874000000
H    -2.643000000     1.717000000    -3.933000000
O     1.466000000    -0.072000000    -2.720000000
H     2.172000000    -0.552000000    -2.287000000
H     0.786000000     0.009000000    -2.051000000
O    -0.020000000     4.243000000     2.038000000
H     0.313000000     3.994000000     1.176000000
H     0.591000000     4.911000000     2.347000000
O     0.235000000    -4.718000000    -0.637000000
H     0.896000000    -5.137000000    -0.085000000
H     0.738000000    -4.295000000    -1.333000000
O    -5.705000000     4.528000000    -1.462000000
H    -5.254000000     5.165000000    -0.908000000
H    -5.098000000     4.366000000    -2.183000000
O     2.899000000    -3.195000000     0.898000000
H     2.562000000    -2.789000000     1.696000000
H     2.494000000    -4.062000000     0.881000000
O    -0.384000000    -5.742000000     3.408000000
H    -0.971000000    -5.682000000     2.654000000
H    -0.963000000    -5.688000000     4.168000000
O    -2.388000000     7.265000000    -4.571000000
H    -1.787000000     6.605000000    -4.225000000
H    -1.966000000     7.577000000    -5.371000000
O     6.687000000     3.317000000     1.637000000
H     7.234000000     2.899000000     2.302000000
H     5.993000000     2.680000000     1.464000000
O     0.334000000     5.417000000    -2.877000000
H     0.090000000     4.753000000    -2.232000000
H    -0.011000000     5.083000000    -3.706000000
O     1.199000000    -3.349000000     3.039000000
H     1.247000000    -4.266000000     2.770000000
H     0.438000000    -3.310000000     3.619000000
O     3.555000000    -1.505000000     4.054000000
H     3.827000000    -0.925000000     3.342000000
H     2.627000000    -1.669000000     3.888000000
O    -4.128000000     0.283000000     0.597000000
H    -4.418000000    -0.590000000     0.864000000
H    -3.901000000     0.721000000     1.418000000
O    -0.658000000     4.547000000     4.717000000
H    -0.216000000     4.000000000     4.067000000
H    -1.184000000     5.157000000     4.199000000
O     3.985000000     0.846000000     5.744000000
H     3.876000000     0.283000000     4.978000000
H     3.264000000     1.474000000     5.685000000
O     1.391000000     0.913000000     3.207000000
H     0.511000000     0.538000000     3.214000000
H     1.731000000     0.710000000     2.335000000
O     3.824000000     2.925000000     2.023000000
H     3.899000000     3.398000000     2.852000000
H     3.886000000     3.605000000     1.352000000
O    -5.610000000    -0.484000000    -4.051000000
H    -5.747000000    -0.204000000    -3.147000000
H    -4.827000000    -0.011000000    -4.333000000
O    -4.609000000     6.534000000     0.132000000
H    -3.885000000     5.932000000     0.304000000
H    -4.306000000     7.071000000    -0.600000000
O    -2.529000000    -5.835000000     1.609000000
H    -1.817000000    -5.987000000     0.988000000
H    -3.289000000    -5.641000000     1.059000000
O     5.947000000    -2.399000000     2.761000000
H     5.079000000    -2.443000000     3.162000000
H     5.783000000    -2.086000000     1.871000000
O    -2.493000000    -1.050000000    -3.857000000
H    -1.768000000    -1.331000000    -4.416000000
H    -2.847000000    -1.864000000    -3.498000000
O    -3.553000000     4.247000000    -3.053000000
H    -2.664000000     4.054000000    -2.758000000
H    -3.878000000     3.414000000    -3.395000000
O    -1.225000000    -0.150000000     3.159000000
H    -1.688000000     0.667000000     2.971000000
H    -1.005000000    -0.504000000     2.297000000
O    -2.080000000    -6.215000000    -1.710000000
H    -1.329000000    -5.646000000    -1.542000000
H    -1.900000000    -7.006000000    -1.201000000
O     6.362000000    -0.522000000     0.009000000
H     6.807000000     0.325000000    -0.008000000
H     7.067000000    -1.165000000    -0.060000000
O     0.373000000    -1.606000000    -4.699000000
H     0.693000000    -0.996000000    -4.035000000
H     0.425000000    -2.465000000    -4.279000000
O     1.666000000     6.812000000    -0.394000000
H     1.041000000     7.443000000    -0.039000000
H     1.165000000     6.314000000    -1.040000000
O    -5.544000000    -3.243000000    -1.911000000
H    -4.975000000    -3.524000000    -2.627000000
H    -5.081000000    -2.505000000    -1.513000000
O    -2.804000000     4.487000000     0.767000000
H    -2.572000000     4.056000000    -0.056000000
H    -1.965000000     4.639000000     1.202000000
O    -2.029000000     2.378000000     2.880000000
H    -2.945000000     2.652000000     2.917000000
H    -1.574000000     3.116000000     2.474000000
O    -3.182000000    -3.982000000    -3.689000000
H    -2.685000000    -3.807000000    -4.488000000
H    -2.797000000    -4.785000000    -3.338000000
O     5.109000000     2.320000000    -0.649000000
H     4.441000000     2.995000000    -0.525000000
H     4.751000000     1.751000000    -1.330000000
O     4.485000000     0.344000000     2.090000000
H     5.049000000     0.318000000     1.317000000
H     4.063000000     1.202000000     2.050000000
O    -4.715000000    -4.631000000     0.384000000
H    -4.570000000    -3.773000000     0.782000000
H    -5.215000000    -4.445000000    -0.411000000
O     3.457000000     1.881000000    -2.770000000
H     3.114000000     2.493000000    -3.421000000
H     2.840000000     1.150000000    -2.780000000
O     2.338000000     6.095000000     2.548000000
H     1.783000000     6.863000000     2.690000000
H     2.824000000     6.296000000     1.748000000
O     2.049000000    -5.784000000     1.305000000
H     1.759000000    -6.681000000     1.475000000
H     3.003000000    -5.825000000     1.369000000
O    -5.804000000     0.018000000    -1.448000000
H    -6.584000000     0.261000000    -0.948000000
H    -5.075000000     0.179000000    -0.849000000
O    -4.668000000    -2.044000000     2.094000000
H    -5.605000000    -1.963000000     2.276000000
H    -4.372000000    -2.747000000     2.672000000
O     3.959000000    -3.699000000    -1.727000000
H     4.626000000    -4.384000000    -1.770000000
H     3.772000000    -3.605000000    -0.793000000
O     3.159000000     4.449000000    -0.170000000
H     2.206000000     4.367000000    -0.199000000
H     3.354000000     5.185000000    -0.750000000
O     4.068000000    -0.926000000    -1.668000000
H     4.733000000    -0.582000000    -1.072000000
H     4.245000000    -1.866000000    -1.708000000
O     3.036000000     5.704000000    -4.004000000
H     2.755000000     6.106000000    -4.826000000
H     2.223000000     5.407000000    -3.593000000
O    -0.988000000     4.120000000    -5.006000000
H    -1.212000000     3.883000000    -5.906000000
H    -1.237000000     3.355000000    -4.488000000
O    -3.562000000    -4.297000000     3.585000000
H    -4.247000000    -4.810000000     4.014000000
H    -3.265000000    -4.851000000     2.863000000
O     1.418000000    -4.042000000    -3.101000000
H     1.349000000    -4.811000000    -3.667000000
H     2.309000000    -3.722000000    -3.239000000
O    -1.298000000    -3.068000000     4.699000000
H    -1.439000000    -2.123000000     4.762000000
H    -2.144000000    -3.419000000     4.421000000
