158
-3027.35667
C     1.196000000    -0.212000000    -0.734000000
H     2.115000000    -0.550000000    -1.206000000
C    -0.081000000    -0.600000000    -1.161000000
H    -0.295000000    -1.174000000    -2.059000000
C    -1.161000000    -0.254000000    -0.372000000
H    -2.163000000    -0.710000000    -0.503000000
C    -0.928000000     0.413000000     0.794000000
H    -1.716000000     0.594000000     1.522000000
C     0.334000000     0.843000000     1.234000000
H     0.467000000     1.303000000     2.210000000
C     1.433000000     0.493000000     0.388000000
C     2.870000000     0.786000000     0.838000000
O     3.794000000     0.493000000     0.085000000
O     2.994000000     1.448000000     1.854000000
O     3.107000000    -0.558000000     6.035000000
H     3.782000000    -0.957000000     6.584000000
H     2.391000000    -1.194000000     6.036000000
O    -4.314000000    -4.827000000    -1.307000000
H    -4.957000000    -4.950000000    -2.006000000
H    -3.499000000    -5.174000000    -1.669000000
O    -6.261000000    -2.146000000    -4.444000000
H    -6.922000000    -2.562000000    -4.996000000
H    -5.577000000    -1.872000000    -5.055000000
O     1.977000000     1.045000000     4.419000000
H     2.403000000     0.965000000     3.565000000
H     2.480000000     0.466000000     4.992000000
O    -0.697000000     0.799000000     5.199000000
H     0.229000000     0.789000000     4.957000000
H    -1.084000000     0.082000000     4.697000000
O    -3.049000000     3.993000000     3.011000000
H    -2.762000000     4.695000000     2.427000000
H    -2.242000000     3.539000000     3.254000000
O     2.348000000    -0.153000000    -4.275000000
H     3.078000000    -0.391000000    -3.703000000
H     2.711000000    -0.202000000    -5.159000000
O     0.406000000     1.996000000    -2.804000000
H     0.463000000     1.044000000    -2.721000000
H     0.403000000     2.154000000    -3.748000000
O     3.562000000    -3.370000000    -1.614000000
H     4.416000000    -3.763000000    -1.792000000
H     3.587000000    -3.155000000    -0.681000000
O     4.400000000    -0.516000000    -2.306000000
H     4.190000000    -1.431000000    -2.115000000
H     4.174000000    -0.046000000    -1.503000000
O    -2.435000000     1.534000000    -4.764000000
H    -1.643000000     2.048000000    -4.922000000
H    -2.786000000     1.360000000    -5.638000000
O    -1.961000000    -1.939000000     3.049000000
H    -2.893000000    -2.064000000     3.228000000
H    -1.872000000    -2.115000000     2.112000000
O     0.152000000    -1.793000000    -5.025000000
H     0.934000000    -1.244000000    -5.077000000
H     0.477000000    -2.685000000    -5.150000000
O     7.594000000     3.045000000     2.375000000
H     7.700000000     2.676000000     1.498000000
H     6.816000000     2.611000000     2.725000000
O     3.005000000     3.557000000    -3.478000000
H     3.167000000     4.234000000    -2.821000000
H     2.592000000     2.845000000    -2.991000000
O    -3.285000000    -6.064000000     1.697000000
H    -2.877000000    -6.622000000     1.034000000
H    -2.863000000    -5.212000000     1.585000000
O    -0.421000000     3.885000000     3.862000000
H     0.040000000     4.284000000     3.124000000
H     0.228000000     3.313000000     4.271000000
O     6.274000000     3.640000000    -0.204000000
H     5.683000000     3.776000000     0.537000000
H     6.421000000     2.694000000    -0.221000000
O     1.956000000     4.612000000     0.773000000
H     1.707000000     5.534000000     0.711000000
H     1.276000000     4.147000000     0.284000000
O     0.532000000    -1.728000000     4.840000000
H    -0.312000000    -1.781000000     4.392000000
H     0.390000000    -2.175000000     5.674000000
O    -5.283000000    -3.368000000     0.750000000
H    -4.764000000    -3.810000000     0.078000000
H    -4.698000000    -2.697000000     1.101000000
O    -3.262000000    -1.804000000    -2.622000000
H    -2.557000000    -2.438000000    -2.494000000
H    -3.278000000    -1.650000000    -3.566000000
O    -5.044000000    -0.946000000     3.567000000
H    -5.785000000    -0.373000000     3.763000000
H    -4.683000000    -0.600000000     2.751000000
O     0.586000000    -2.794000000     0.857000000
H     1.376000000    -2.812000000     1.398000000
H     0.571000000    -1.913000000     0.484000000
O     3.940000000    -2.137000000     0.792000000
H     3.502000000    -2.171000000     1.643000000
H     3.995000000    -1.203000000     0.589000000
O    -4.679000000     3.398000000    -1.335000000
H    -4.060000000     2.703000000    -1.557000000
H    -4.660000000     3.986000000    -2.090000000
O    -2.067000000    -3.996000000     0.527000000
H    -1.173000000    -3.658000000     0.476000000
H    -2.285000000    -4.234000000    -0.373000000
O     5.786000000     0.898000000     3.686000000
H     5.750000000     0.205000000     4.345000000
H     5.347000000     0.525000000     2.922000000
O    -0.803000000     5.194000000     6.108000000
H    -1.723000000     5.225000000     6.371000000
H    -0.812000000     4.754000000     5.258000000
O     5.056000000     6.264000000     3.163000000
H     4.857000000     5.486000000     2.642000000
H     4.247000000     6.775000000     3.147000000
O    -7.171000000    -5.065000000    -0.334000000
H    -6.343000000    -4.683000000    -0.040000000
H    -7.215000000    -4.853000000    -1.266000000
O    -3.404000000     1.171000000    -2.156000000
H    -3.219000000     1.301000000    -3.086000000
H    -2.978000000     0.342000000    -1.941000000
O     2.388000000     3.800000000     4.204000000
H     2.452000000     2.848000000     4.273000000
H     2.959000000     4.026000000     3.469000000
O    -4.890000000    -0.233000000     0.670000000
H    -5.378000000    -0.446000000    -0.126000000
H    -5.284000000     0.582000000     0.982000000
O    -1.498000000    -3.629000000    -2.154000000
H    -1.700000000    -4.552000000    -2.307000000
H    -0.554000000    -3.562000000    -2.296000000
O    -6.051000000     2.028000000     1.890000000
H    -6.937000000     1.679000000     1.789000000
H    -6.079000000     2.880000000     1.454000000
O    -3.689000000    -4.019000000    -5.098000000
H    -3.316000000    -3.141000000    -5.021000000
H    -2.942000000    -4.607000000    -4.991000000
O    -1.777000000     5.667000000     0.984000000
H    -1.121000000     5.217000000     0.451000000
H    -2.424000000     5.982000000     0.352000000
O     6.365000000     0.793000000     0.596000000
H     6.604000000     0.106000000    -0.026000000
H     5.434000000     0.947000000     0.437000000
O    -0.254000000     3.919000000    -0.779000000
H    -0.657000000     3.056000000    -0.871000000
H     0.245000000     4.038000000    -1.587000000
O    -5.918000000    -1.452000000    -1.965000000
H    -4.984000000    -1.643000000    -2.058000000
H    -6.301000000    -1.720000000    -2.801000000
O    -2.653000000    -1.608000000    -5.307000000
H    -1.758000000    -1.290000000    -5.192000000
H    -2.899000000    -1.319000000    -6.186000000
O     1.240000000    -4.028000000    -2.558000000
H     2.045000000    -3.684000000    -2.173000000
H     1.522000000    -4.792000000    -3.061000000
O    -6.709000000     1.587000000    -0.970000000
H    -6.285000000     0.735000000    -0.864000000
H    -5.988000000     2.216000000    -0.964000000
O     5.533000000     1.878000000    -3.324000000
H     4.792000000     2.482000000    -3.282000000
H     5.159000000     1.025000000    -3.102000000
O    -8.372000000    -0.924000000    -0.683000000
H    -7.686000000    -0.909000000    -1.350000000
H    -8.281000000    -0.087000000    -0.227000000
O     2.382000000    -2.573000000     2.967000000
H     1.943000000    -2.068000000     3.652000000
H     2.343000000    -3.479000000     3.275000000
O     4.320000000     3.721000000     1.871000000
H     3.584000000     4.159000000     1.444000000
H     4.101000000     2.790000000     1.827000000
