158
-3053.15723
C     0.801000000    -0.581000000    -1.119000000
H     1.288000000    -0.954000000    -2.017000000
C    -0.479000000    -0.031000000    -1.236000000
H    -0.864000000    -0.057000000    -2.252000000
C    -1.101000000     0.514000000    -0.143000000
H    -2.085000000     0.988000000    -0.224000000
C    -0.499000000     0.451000000     1.118000000
H    -0.962000000     0.825000000     2.027000000
C     0.754000000    -0.116000000     1.273000000
H     1.176000000    -0.098000000     2.274000000
C     1.390000000    -0.673000000     0.166000000
C     2.764000000    -1.196000000     0.260000000
O     3.331000000    -1.664000000    -0.728000000
O     3.368000000    -1.130000000     1.295000000
O     0.674000000    -3.619000000     3.321000000
H     1.515000000    -3.168000000     3.241000000
H     0.040000000    -2.920000000     3.478000000
O     4.611000000    -4.830000000     3.067000000
H     4.148000000    -4.016000000     3.265000000
H     4.175000000    -5.490000000     3.607000000
O    -1.351000000     4.263000000    -0.786000000
H    -0.410000000     4.134000000    -0.667000000
H    -1.684000000     4.429000000     0.096000000
O     3.158000000    -2.467000000     3.562000000
H     3.172000000    -2.348000000     2.612000000
H     3.474000000    -1.634000000     3.912000000
O    -1.149000000    -1.575000000     3.681000000
H    -1.635000000    -1.744000000     2.873000000
H    -1.820000000    -1.324000000     4.316000000
O    -1.462000000     5.274000000     4.193000000
H    -1.896000000     4.803000000     3.482000000
H    -1.823000000     6.160000000     4.149000000
O    -1.979000000     3.753000000    -5.257000000
H    -1.643000000     2.945000000    -4.869000000
H    -1.199000000     4.280000000    -5.425000000
O    -5.378000000     2.715000000     0.157000000
H    -6.219000000     2.567000000     0.588000000
H    -4.726000000     2.550000000     0.838000000
O     3.677000000    -1.272000000    -3.349000000
H     3.294000000    -0.440000000    -3.627000000
H     3.355000000    -1.398000000    -2.457000000
O     1.121000000    -5.396000000    -2.592000000
H     1.844000000    -4.901000000    -2.975000000
H     0.486000000    -4.729000000    -2.330000000
O     2.482000000    -3.663000000    -4.498000000
H     2.778000000    -4.009000000    -5.340000000
H     3.194000000    -3.092000000    -4.210000000
O     0.322000000    -1.785000000    -4.781000000
H     0.647000000    -0.885000000    -4.771000000
H     1.050000000    -2.306000000    -4.440000000
O     1.628000000     2.366000000     3.030000000
H     2.401000000     2.679000000     3.500000000
H     0.899000000     2.541000000     3.626000000
O     6.258000000    -2.114000000     3.447000000
H     5.803000000    -2.153000000     2.606000000
H     6.630000000    -1.232000000     3.477000000
O    -2.670000000    -2.338000000     1.336000000
H    -2.677000000    -3.161000000     0.848000000
H    -2.251000000    -1.713000000     0.744000000
O    -3.542000000     5.760000000     0.960000000
H    -4.356000000     5.541000000     0.507000000
H    -3.340000000     6.650000000     0.673000000
O     7.384000000     0.327000000     3.144000000
H     6.434000000     0.438000000     3.121000000
H     7.729000000     1.219000000     3.166000000
O     1.201000000     2.869000000     0.247000000
H     1.836000000     2.670000000     0.935000000
H     0.458000000     2.295000000     0.433000000
O     4.464000000     0.721000000     2.780000000
H     4.027000000     0.319000000     2.029000000
H     4.129000000     0.242000000     3.537000000
O    -2.159000000     3.824000000     2.035000000
H    -2.696000000     4.596000000     1.857000000
H    -2.761000000     3.086000000     1.937000000
O     3.436000000    -4.554000000    -0.119000000
H     4.228000000    -5.029000000    -0.371000000
H     3.596000000    -3.654000000    -0.404000000
O     1.486000000    -5.944000000     1.962000000
H     1.151000000    -5.241000000     2.520000000
H     1.865000000    -5.491000000     1.209000000
O    -6.293000000    -2.482000000    -0.738000000
H    -5.430000000    -2.092000000    -0.874000000
H    -6.186000000    -3.397000000    -0.997000000
O     3.028000000     2.502000000    -1.695000000
H     2.534000000     2.879000000    -0.967000000
H     2.365000000     2.078000000    -2.240000000
O    -3.928000000    -1.267000000    -1.268000000
H    -3.406000000    -1.468000000    -2.044000000
H    -4.141000000    -0.338000000    -1.357000000
O    -5.877000000     3.979000000    -2.094000000
H    -5.622000000     3.615000000    -1.246000000
H    -5.065000000     3.997000000    -2.600000000
O    -3.028000000    -4.419000000    -0.625000000
H    -2.694000000    -5.316000000    -0.604000000
H    -3.001000000    -4.175000000    -1.550000000
O     0.075000000     3.399000000    -3.206000000
H    -0.657000000     3.509000000    -2.599000000
H     0.661000000     4.130000000    -3.009000000
O     1.392000000     0.942000000    -3.875000000
H     2.063000000     1.277000000    -4.471000000
H     0.719000000     1.623000000    -3.864000000
O     7.647000000    -3.597000000    -0.890000000
H     7.069000000    -2.850000000    -0.736000000
H     7.533000000    -4.151000000    -0.118000000
O     5.652000000     1.425000000    -0.538000000
H     5.599000000     1.105000000    -1.438000000
H     5.047000000     2.166000000    -0.511000000
O     4.730000000     3.120000000     1.693000000
H     4.449000000     3.515000000     2.519000000
H     4.621000000     2.179000000     1.828000000
O    -2.535000000    -1.586000000    -3.924000000
H    -1.688000000    -1.589000000    -3.479000000
H    -2.342000000    -1.270000000    -4.806000000
O     3.466000000    -0.168000000     5.112000000
H     4.041000000    -0.222000000     5.876000000
H     2.628000000     0.132000000     5.464000000
O    -0.908000000     2.296000000     4.637000000
H    -1.135000000     3.126000000     5.057000000
H    -1.749000000     1.861000000     4.496000000
O    -5.063000000    -2.527000000    -3.824000000
H    -4.168000000    -2.208000000    -3.940000000
H    -5.551000000    -1.764000000    -3.514000000
O    -3.483000000     1.338000000     5.021000000
H    -4.302000000     1.492000000     5.492000000
H    -3.241000000     0.440000000     5.249000000
O     6.832000000    -4.823000000     1.583000000
H     5.921000000    -4.850000000     1.875000000
H     7.341000000    -4.762000000     2.392000000
O     0.663000000     0.983000000     6.385000000
H     0.275000000     1.129000000     5.523000000
H     0.306000000     1.685000000     6.930000000
O    -5.185000000    -0.987000000     1.763000000
H    -5.531000000    -1.486000000     1.023000000
H    -4.290000000    -1.308000000     1.872000000
O    -3.065000000     3.727000000    -2.877000000
H    -2.965000000     4.299000000    -3.638000000
H    -2.503000000     4.118000000    -2.208000000
O     6.770000000    -0.958000000    -3.113000000
H     5.813000000    -0.959000000    -3.079000000
H     7.012000000    -1.882000000    -3.051000000
O     5.926000000    -1.638000000    -0.113000000
H     6.060000000    -0.718000000     0.114000000
H     4.995000000    -1.700000000    -0.326000000
O     2.754000000    -3.687000000     5.898000000
H     2.691000000    -3.171000000     5.094000000
H     1.953000000    -3.478000000     6.379000000
O    -3.890000000     1.787000000     2.178000000
H    -3.684000000     1.808000000     3.112000000
H    -4.365000000     0.965000000     2.056000000
O    -5.775000000     1.034000000    -4.247000000
H    -6.319000000     0.464000000    -3.703000000
H    -5.017000000     1.237000000    -3.699000000
O    -4.103000000     1.382000000    -2.263000000
H    -4.522000000     1.825000000    -1.525000000
H    -3.636000000     2.077000000    -2.726000000
O     0.632000000     5.512000000     1.845000000
H     0.570000000     4.725000000     2.387000000
H    -0.265000000     5.672000000     1.551000000
