158
-2990.62654
C     0.308000000    -1.159000000    -0.794000000
H     0.460000000    -1.919000000    -1.556000000
C    -0.496000000    -0.114000000    -1.123000000
H    -1.121000000    -0.133000000    -2.012000000
C    -0.847000000     0.809000000    -0.209000000
H    -1.422000000     1.620000000    -0.630000000
C    -0.206000000     0.880000000     0.976000000
H    -0.387000000     1.696000000     1.671000000
C     0.825000000    -0.036000000     1.295000000
H     1.235000000     0.026000000     2.300000000
C     1.090000000    -1.094000000     0.409000000
C     2.135000000    -2.045000000     0.656000000
O     2.438000000    -2.852000000    -0.243000000
O     2.374000000    -2.325000000     1.826000000
O    -1.858000000    -3.648000000    -0.858000000
H    -1.943000000    -2.715000000    -1.054000000
H    -1.795000000    -3.688000000     0.096000000
O     2.148000000     2.147000000    -1.728000000
H     1.646000000     2.961000000    -1.784000000
H     1.818000000     1.612000000    -2.449000000
O     1.545000000    -7.477000000     2.667000000
H     1.627000000    -6.532000000     2.796000000
H     1.822000000    -7.620000000     1.762000000
O     1.750000000    -4.633000000     3.060000000
H     1.449000000    -3.737000000     2.904000000
H     2.580000000    -4.529000000     3.524000000
O    -2.868000000     0.077000000    -3.854000000
H    -3.197000000     0.951000000    -4.062000000
H    -3.439000000    -0.233000000    -3.151000000
O    -3.867000000     5.749000000    -3.099000000
H    -3.758000000     4.897000000    -3.520000000
H    -3.391000000     6.358000000    -3.665000000
O    -6.535000000     3.981000000     1.767000000
H    -7.300000000     4.301000000     2.245000000
H    -6.099000000     4.775000000     1.455000000
O     1.511000000     5.862000000     2.483000000
H     0.562000000     5.984000000     2.466000000
H     1.638000000     5.032000000     2.942000000
O     3.357000000    -1.862000000    -2.675000000
H     3.816000000    -1.187000000    -2.176000000
H     3.014000000    -2.459000000    -2.010000000
O    -4.715000000     2.663000000    -4.589000000
H    -3.873000000     2.963000000    -4.933000000
H    -4.931000000     1.897000000    -5.121000000
O     1.124000000    -5.147000000    -0.933000000
H     0.309000000    -4.703000000    -1.169000000
H     1.675000000    -4.456000000    -0.567000000
O     1.806000000     1.009000000     4.478000000
H     2.078000000     1.197000000     5.376000000
H     0.874000000     0.803000000     4.548000000
O     7.239000000    -4.080000000     2.003000000
H     6.283000000    -4.055000000     2.054000000
H     7.533000000    -3.634000000     2.796000000
O    -0.177000000     4.957000000    -0.514000000
H    -0.240000000     4.648000000     0.390000000
H    -0.404000000     5.886000000    -0.465000000
O     5.074000000    -3.627000000     4.865000000
H     4.440000000    -3.058000000     4.429000000
H     5.913000000    -3.403000000     4.463000000
O     2.723000000     2.709000000     1.364000000
H     2.477000000     2.210000000     0.585000000
H     2.041000000     2.506000000     2.004000000
O     3.919000000    -1.272000000     3.636000000
H     3.311000000    -1.808000000     3.127000000
H     3.379000000    -0.564000000     3.986000000
O    -1.412000000     4.643000000     1.975000000
H    -2.273000000     5.023000000     2.151000000
H    -1.142000000     4.265000000     2.812000000
O     4.613000000    -7.458000000     0.031000000
H     3.741000000    -7.852000000     0.054000000
H     4.504000000    -6.609000000     0.460000000
O     1.832000000    -7.884000000    -0.084000000
H     1.698000000    -7.074000000    -0.577000000
H     1.180000000    -8.489000000    -0.436000000
O    -3.680000000    -0.906000000    -1.270000000
H    -3.007000000    -0.437000000    -0.777000000
H    -4.503000000    -0.504000000    -0.992000000
O    -3.722000000    -1.986000000    -5.314000000
H    -3.637000000    -2.880000000    -4.984000000
H    -3.209000000    -1.456000000    -4.704000000
O    -5.480000000    -3.077000000    -1.289000000
H    -6.361000000    -2.705000000    -1.333000000
H    -4.898000000    -2.318000000    -1.319000000
O     4.056000000     0.277000000    -1.035000000
H     3.535000000     1.075000000    -0.945000000
H     4.902000000     0.579000000    -1.365000000
O    -1.212000000    -4.053000000     1.918000000
H    -1.423000000    -3.729000000     2.793000000
H    -0.270000000    -3.912000000     1.831000000
O     2.792000000    -3.929000000    -4.375000000
H     1.889000000    -3.987000000    -4.062000000
H     3.224000000    -3.345000000    -3.751000000
O     1.793000000     0.007000000    -3.856000000
H     1.068000000    -0.500000000    -4.222000000
H     2.391000000    -0.652000000    -3.502000000
O    -2.143000000     3.616000000    -5.474000000
H    -1.992000000     4.403000000    -5.997000000
H    -1.726000000     2.913000000    -5.972000000
O    -0.314000000    -1.348000000    -4.720000000
H    -0.693000000    -1.608000000    -5.560000000
H    -1.000000000    -0.831000000    -4.298000000
O     4.045000000    -5.792000000    -2.710000000
H     3.703000000    -5.002000000    -3.128000000
H     3.394000000    -6.467000000    -2.901000000
O     5.325000000    -0.816000000     1.016000000
H     4.921000000    -0.987000000     1.866000000
H     4.595000000    -0.567000000     0.449000000
O     4.831000000     3.101000000     3.351000000
H     4.527000000     2.748000000     4.187000000
H     4.185000000     2.797000000     2.713000000
O    -3.521000000     6.180000000     2.664000000
H    -4.173000000     6.013000000     3.344000000
H    -4.017000000     6.161000000     1.846000000
O    -0.890000000     0.216000000     5.485000000
H    -1.339000000     0.577000000     6.249000000
H    -1.594000000    -0.119000000     4.929000000
O    -3.382000000    -0.184000000     3.640000000
H    -3.582000000    -0.869000000     4.278000000
H    -4.003000000    -0.333000000     2.927000000
O     1.498000000     4.870000000    -2.656000000
H     1.914000000     5.732000000    -2.657000000
H     0.770000000     4.956000000    -2.041000000
O    -5.568000000    -0.232000000     1.970000000
H    -6.091000000    -0.947000000     1.608000000
H    -5.478000000     0.389000000     1.248000000
O     3.059000000     5.572000000     0.055000000
H     2.820000000     5.968000000     0.893000000
H     2.744000000     4.670000000     0.118000000
O    -2.844000000    -5.881000000    -2.142000000
H    -2.827000000    -5.465000000    -3.003000000
H    -2.484000000    -5.221000000    -1.549000000
O    -3.273000000     3.761000000    -1.146000000
H    -2.324000000     3.823000000    -1.037000000
H    -3.525000000     4.600000000    -1.532000000
O     4.649000000    -4.466000000     0.986000000
H     5.088000000    -3.677000000     0.668000000
H     3.768000000    -4.173000000     1.216000000
O     3.412000000    -5.933000000     5.592000000
H     3.767000000    -5.059000000     5.434000000
H     2.731000000    -5.799000000     6.251000000
O     2.324000000    -2.802000000     5.714000000
H     1.402000000    -2.976000000     5.901000000
H     2.779000000    -3.020000000     6.527000000
O    -2.619000000     2.850000000     3.864000000
H    -2.946000000     2.192000000     4.477000000
H    -2.457000000     2.363000000     3.055000000
O     0.149000000    -4.129000000    -3.516000000
H     0.130000000    -3.200000000    -3.745000000
H    -0.686000000    -4.473000000    -3.834000000
O    -5.041000000     1.518000000    -0.443000000
H    -5.824000000     2.004000000    -0.701000000
H    -4.325000000     2.145000000    -0.546000000
O     1.405000000    -6.818000000    -3.002000000
H     1.000000000    -6.552000000    -3.828000000
H     1.092000000    -6.176000000    -2.365000000
O     0.783000000     3.789000000     4.078000000
H     1.176000000     3.063000000     4.563000000
H     0.413000000     4.356000000     4.755000000
