158
-3058.60979
C     0.789000000     0.936000000     0.805000000
H     1.501000000     1.571000000     1.326000000
C     1.001000000    -0.426000000     0.794000000
H     1.911000000    -0.796000000     1.258000000
C     0.142000000    -1.218000000     0.095000000
H     0.310000000    -2.313000000    -0.009000000
C    -0.953000000    -0.655000000    -0.532000000
H    -1.633000000    -1.309000000    -1.073000000
C    -1.152000000     0.705000000    -0.579000000
H    -1.967000000     1.076000000    -1.196000000
C    -0.218000000     1.553000000     0.027000000
C    -0.431000000     3.067000000    -0.064000000
O    -1.025000000     3.589000000    -0.970000000
O     0.168000000     3.700000000     0.874000000
O    -0.642000000     2.760000000    -3.606000000
H    -0.369000000     3.044000000    -2.734000000
H    -1.563000000     2.521000000    -3.503000000
O     0.318000000     3.987000000     3.520000000
H     0.300000000     3.913000000     2.566000000
H     0.567000000     4.897000000     3.685000000
O     2.113000000    -6.272000000    -0.398000000
H     1.522000000    -6.909000000    -0.801000000
H     2.169000000    -5.561000000    -1.037000000
O    -4.506000000     3.904000000     1.620000000
H    -4.222000000     4.669000000     2.120000000
H    -4.407000000     4.166000000     0.704000000
O     2.107000000    -3.468000000     3.289000000
H     1.490000000    -2.750000000     3.148000000
H     1.579000000    -4.163000000     3.681000000
O     0.399000000    -5.405000000     3.869000000
H    -0.257000000    -6.075000000     3.678000000
H     0.888000000    -5.756000000     4.614000000
O     6.552000000    -2.085000000    -1.214000000
H     6.655000000    -2.180000000    -0.267000000
H     5.610000000    -2.166000000    -1.362000000
O     0.095000000     5.942000000    -1.525000000
H    -0.162000000     5.032000000    -1.373000000
H     0.771000000     5.889000000    -2.201000000
O    -0.084000000    -0.759000000     5.057000000
H    -0.576000000    -1.338000000     5.638000000
H    -0.597000000    -0.738000000     4.249000000
O    -3.677000000    -0.924000000    -3.476000000
H    -4.239000000    -1.046000000    -4.241000000
H    -2.818000000    -1.242000000    -3.757000000
O     2.531000000     0.044000000     5.840000000
H     2.777000000     0.783000000     5.283000000
H     1.864000000    -0.423000000     5.338000000
O    -1.928000000     3.400000000     4.796000000
H    -1.113000000     3.666000000     4.371000000
H    -2.536000000     4.117000000     4.617000000
O     2.844000000     2.489000000     4.150000000
H     3.091000000     3.040000000     4.893000000
H     2.163000000     2.988000000     3.699000000
O    -5.085000000    -2.558000000    -1.590000000
H    -4.992000000    -1.969000000    -0.841000000
H    -4.705000000    -2.074000000    -2.324000000
O     5.862000000    -2.630000000     1.341000000
H     6.226000000    -3.410000000     1.760000000
H     4.983000000    -2.892000000     1.069000000
O    -3.541000000     2.765000000    -5.234000000
H    -3.498000000     3.700000000    -5.035000000
H    -3.720000000     2.348000000    -4.391000000
O    -1.941000000    -6.151000000     2.738000000
H    -1.959000000    -6.321000000     1.796000000
H    -2.137000000    -5.218000000     2.817000000
O     4.395000000    -1.997000000     4.133000000
H     4.130000000    -1.183000000     3.705000000
H     3.717000000    -2.627000000     3.892000000
O    -1.209000000    -1.938000000    -4.506000000
H    -0.504000000    -1.364000000    -4.207000000
H    -1.107000000    -2.735000000    -3.986000000
O    -3.854000000     4.007000000    -1.080000000
H    -2.906000000     3.878000000    -1.061000000
H    -4.148000000     3.510000000    -1.844000000
O    -3.377000000    -4.534000000    -4.153000000
H    -2.644000000    -4.686000000    -4.750000000
H    -2.969000000    -4.434000000    -3.293000000
O    -1.721000000    -0.604000000     2.860000000
H    -2.085000000     0.258000000     3.063000000
H    -1.461000000    -0.543000000     1.941000000
O     4.374000000     3.014000000    -1.391000000
H     3.767000000     2.796000000    -2.099000000
H     3.809000000     3.280000000    -0.665000000
O    -1.471000000    -6.499000000    -0.038000000
H    -0.611000000    -6.685000000    -0.415000000
H    -1.903000000    -7.352000000     0.007000000
O     6.774000000    -0.207000000     2.550000000
H     6.598000000    -1.056000000     2.145000000
H     5.944000000     0.039000000     2.959000000
O     4.197000000    -5.193000000    -2.471000000
H     4.588000000    -5.908000000    -2.973000000
H     3.445000000    -4.916000000    -2.993000000
O     0.678000000    -0.045000000    -3.843000000
H     0.856000000    -0.024000000    -4.783000000
H     0.762000000     0.867000000    -3.563000000
O    -3.462000000     5.371000000    -4.478000000
H    -4.065000000     5.339000000    -3.735000000
H    -2.803000000     6.016000000    -4.224000000
O     1.681000000     7.016000000     0.550000000
H     0.853000000     6.853000000     1.002000000
H     1.467000000     6.931000000    -0.379000000
O    -4.235000000    -3.879000000     1.351000000
H    -4.675000000    -4.459000000     0.730000000
H    -4.471000000    -2.997000000     1.064000000
O    -4.234000000     1.776000000    -2.824000000
H    -5.185000000     1.838000000    -2.906000000
H    -4.036000000     0.859000000    -3.014000000
O    -0.961000000     6.175000000     1.364000000
H    -1.714000000     6.331000000     0.794000000
H    -0.619000000     5.327000000     1.082000000
O    -3.254000000     1.577000000     3.243000000
H    -3.712000000     2.199000000     2.677000000
H    -2.823000000     2.123000000     3.900000000
O    -2.469000000    -4.397000000    -1.583000000
H    -1.621000000    -4.122000000    -1.931000000
H    -2.264000000    -5.127000000    -1.000000000
O     4.224000000     0.568000000     0.245000000
H     4.180000000     1.167000000    -0.500000000
H     4.117000000    -0.301000000    -0.140000000
O     4.019000000     0.354000000     2.962000000
H     4.102000000     0.332000000     2.008000000
H     3.552000000     1.169000000     3.143000000
O    -2.388000000    -3.150000000     3.478000000
H    -2.069000000    -2.251000000     3.398000000
H    -2.936000000    -3.280000000     2.704000000
O    -5.203000000     5.956000000    -2.326000000
H    -4.952000000     5.401000000    -1.588000000
H    -5.519000000     6.764000000    -1.922000000
O    -5.274000000    -1.172000000     0.909000000
H    -5.007000000    -0.375000000     0.453000000
H    -5.335000000    -0.914000000     1.829000000
O     0.018000000    -3.870000000    -2.725000000
H     0.361000000    -4.740000000    -2.931000000
H     0.790000000    -3.304000000    -2.719000000
O     3.591000000    -4.118000000     0.971000000
H     3.058000000    -4.773000000     0.520000000
H     3.099000000    -3.916000000     1.767000000
O     2.686000000     4.299000000     0.768000000
H     1.847000000     3.848000000     0.676000000
H     2.468000000     5.228000000     0.702000000
O     3.867000000    -1.922000000    -0.837000000
H     3.102000000    -1.659000000    -1.348000000
H     3.540000000    -2.601000000    -0.247000000
O     5.763000000     2.933000000     1.790000000
H     5.688000000     2.428000000     0.980000000
H     5.059000000     3.580000000     1.734000000
O     1.251000000    -6.077000000    -3.197000000
H     1.756000000    -6.179000000    -4.003000000
H     0.923000000    -6.955000000    -3.006000000
O    -1.725000000     7.163000000    -3.365000000
H    -0.959000000     7.722000000    -3.494000000
H    -1.598000000     6.778000000    -2.498000000
O    -4.799000000     1.427000000     0.422000000
H    -4.658000000     1.743000000    -0.471000000
H    -4.662000000     2.198000000     0.973000000
O     2.116000000    -2.089000000    -2.869000000
H     1.578000000    -1.305000000    -2.985000000
H     2.936000000    -1.886000000    -3.319000000
