158
-3030.00509
C     0.823000000    -0.635000000    -1.017000000
H     1.461000000    -0.907000000    -1.854000000
C    -0.089000000     0.400000000    -1.216000000
H    -0.203000000     0.796000000    -2.221000000
C    -0.821000000     0.896000000    -0.133000000
H    -1.423000000     1.819000000    -0.187000000
C    -0.623000000     0.272000000     1.074000000
H    -1.191000000     0.696000000     1.898000000
C     0.256000000    -0.759000000     1.302000000
H     0.582000000    -0.906000000     2.328000000
C     1.006000000    -1.164000000     0.244000000
C     1.940000000    -2.277000000     0.344000000
O     2.474000000    -2.763000000    -0.647000000
O     2.290000000    -2.656000000     1.457000000
O    -0.838000000     0.567000000     5.040000000
H    -0.592000000    -0.111000000     5.669000000
H    -0.067000000     1.131000000     4.982000000
O     0.944000000    -4.947000000     2.235000000
H     1.382000000    -5.555000000     1.639000000
H     1.215000000    -4.080000000     1.935000000
O     2.876000000    -4.754000000     5.098000000
H     2.088000000    -5.204000000     4.790000000
H     3.304000000    -5.388000000     5.673000000
O     5.715000000    -5.082000000     2.675000000
H     5.086000000    -5.698000000     3.052000000
H     5.236000000    -4.255000000     2.621000000
O    -0.617000000     7.472000000     1.237000000
H    -0.920000000     6.569000000     1.328000000
H    -1.420000000     7.995000000     1.238000000
O    -4.181000000    -0.130000000    -1.862000000
H    -3.701000000    -0.782000000    -2.373000000
H    -5.038000000    -0.078000000    -2.285000000
O     1.644000000     2.018000000     5.385000000
H     2.199000000     1.255000000     5.546000000
H     2.059000000     2.466000000     4.647000000
O    -3.814000000     4.236000000    -1.499000000
H    -3.006000000     4.666000000    -1.218000000
H    -4.370000000     4.239000000    -0.720000000
O     6.489000000    -3.199000000    -2.904000000
H     7.242000000    -3.218000000    -2.313000000
H     5.738000000    -3.385000000    -2.342000000
O     2.196000000     2.596000000    -4.374000000
H     1.268000000     2.822000000    -4.315000000
H     2.433000000     2.325000000    -3.487000000
O    -2.379000000    -2.245000000    -0.563000000
H    -3.120000000    -1.680000000    -0.782000000
H    -2.084000000    -1.933000000     0.292000000
O     5.416000000    -0.683000000     2.426000000
H     4.963000000    -0.022000000     2.949000000
H     4.972000000    -1.503000000     2.640000000
O     6.486000000    -0.259000000    -0.024000000
H     6.723000000     0.656000000     0.132000000
H     6.083000000    -0.545000000     0.796000000
O    -2.141000000     4.870000000     3.800000000
H    -2.380000000     5.730000000     4.146000000
H    -2.834000000     4.665000000     3.172000000
O    -0.233000000    -0.376000000    -4.336000000
H    -0.808000000    -0.574000000    -5.075000000
H    -0.708000000    -0.699000000    -3.570000000
O    -0.153000000     3.235000000     2.266000000
H     0.613000000     3.151000000     1.698000000
H     0.193000000     3.123000000     3.152000000
O    -0.443000000     3.180000000    -3.518000000
H    -0.608000000     3.349000000    -2.591000000
H    -0.978000000     2.412000000    -3.720000000
O     4.827000000    -0.532000000    -2.565000000
H     4.549000000    -1.419000000    -2.791000000
H     5.302000000    -0.633000000    -1.740000000
O    -3.091000000    -1.783000000    -3.904000000
H    -3.221000000    -1.453000000    -4.793000000
H    -3.576000000    -2.607000000    -3.881000000
O     0.717000000     5.740000000    -3.895000000
H     0.324000000     4.891000000    -4.098000000
H     0.891000000     5.705000000    -2.955000000
O     0.713000000    -6.265000000     4.518000000
H     0.654000000    -5.863000000     3.652000000
H     0.836000000    -7.198000000     4.341000000
O    -2.740000000     1.784000000    -3.739000000
H    -3.236000000     2.578000000    -3.937000000
H    -3.264000000     1.334000000    -3.076000000
O    -5.352000000     3.556000000     0.685000000
H    -6.142000000     3.374000000     0.176000000
H    -5.064000000     2.698000000     0.997000000
O     4.048000000    -2.844000000     3.394000000
H     3.404000000    -2.741000000     2.694000000
H     3.629000000    -3.433000000     4.021000000
O    -4.091000000     4.099000000    -4.110000000
H    -4.030000000     5.005000000    -4.414000000
H    -4.242000000     4.172000000    -3.168000000
O     1.937000000    -1.411000000    -5.181000000
H     1.228000000    -1.024000000    -4.667000000
H     2.584000000    -1.684000000    -4.530000000
O     0.753000000    -3.029000000    -6.643000000
H     1.157000000    -2.328000000    -6.131000000
H    -0.011000000    -2.620000000    -7.048000000
O    -2.460000000    -3.277000000     4.214000000
H    -3.328000000    -3.514000000     4.539000000
H    -1.882000000    -3.392000000     4.968000000
O    -3.249000000    -0.187000000     4.304000000
H    -2.413000000     0.188000000     4.583000000
H    -3.312000000    -1.014000000     4.782000000
O     4.963000000    -4.401000000    -0.227000000
H     4.437000000    -5.156000000    -0.490000000
H     4.343000000    -3.672000000    -0.206000000
O    -1.855000000    -5.365000000     2.322000000
H    -2.116000000    -4.678000000     2.935000000
H    -0.899000000    -5.324000000     2.309000000
O    -0.065000000    -4.576000000    -2.156000000
H     0.705000000    -4.402000000    -2.698000000
H    -0.523000000    -3.737000000    -2.115000000
O     0.573000000     4.841000000    -1.074000000
H    -0.005000000     5.022000000    -0.332000000
H     1.192000000     4.191000000    -0.742000000
O    -4.695000000     4.842000000     2.974000000
H    -5.043000000     4.270000000     2.290000000
H    -5.415000000     4.935000000     3.598000000
O     4.426000000     0.582000000     4.934000000
H     3.887000000    -0.169000000     5.184000000
H     4.418000000     1.150000000     5.704000000
O    -3.204000000    -1.406000000     2.032000000
H    -3.557000000    -0.927000000     2.782000000
H    -2.457000000    -1.888000000     2.386000000
O     1.757000000     2.617000000     0.386000000
H     2.434000000     2.425000000    -0.263000000
H     1.150000000     1.879000000     0.326000000
O    -5.196000000     1.515000000     5.065000000
H    -4.738000000     0.747000000     4.723000000
H    -5.866000000     1.706000000     4.408000000
O    -4.608000000     0.900000000     0.793000000
H    -3.848000000     0.502000000     1.217000000
H    -4.455000000     0.774000000    -0.143000000
O     1.702000000    -4.349000000    -4.198000000
H     2.179000000    -5.072000000    -4.605000000
H     1.202000000    -3.958000000    -4.915000000
O     2.050000000    -5.475000000    -0.560000000
H     2.315000000    -4.566000000    -0.420000000
H     1.245000000    -5.414000000    -1.073000000
O     2.572000000    -0.841000000     6.221000000
H     2.995000000    -1.115000000     7.035000000
H     1.758000000    -1.344000000     6.193000000
O    -1.583000000     0.941000000    -6.633000000
H    -1.453000000     1.714000000    -7.182000000
H    -2.399000000     1.115000000    -6.164000000
O     3.452000000    -7.721000000    -2.035000000
H     2.899000000    -8.011000000    -2.760000000
H     3.060000000    -6.896000000    -1.749000000
O    -6.563000000     0.160000000     2.461000000
H    -5.651000000     0.409000000     2.310000000
H    -7.070000000     0.759000000     1.914000000
O     3.381000000    -2.742000000    -2.938000000
H     3.056000000    -2.726000000    -2.038000000
H     2.989000000    -3.527000000    -3.320000000
O     3.557000000     2.041000000    -1.933000000
H     4.301000000     2.530000000    -1.580000000
H     3.945000000     1.245000000    -2.298000000
O    -1.630000000     4.863000000     0.724000000
H    -0.975000000     4.202000000     0.948000000
H    -2.322000000     4.745000000     1.375000000
