158
-3046.40219
C     0.116000000    -0.993000000    -1.148000000
H     0.206000000    -1.736000000    -1.936000000
C    -0.602000000     0.259000000    -1.201000000
H    -0.995000000     0.635000000    -2.142000000
C    -0.572000000     1.101000000    -0.112000000
H    -1.099000000     2.015000000    -0.044000000
C     0.007000000     0.655000000     1.130000000
H    -0.072000000     1.303000000     1.999000000
C     0.705000000    -0.570000000     1.203000000
H     1.195000000    -0.798000000     2.146000000
C     0.699000000    -1.373000000     0.079000000
C     1.283000000    -2.741000000     0.148000000
O     1.745000000    -3.279000000    -0.846000000
O     1.656000000    -3.305000000     1.173000000
O    -1.461000000     1.275000000     4.505000000
H    -1.184000000     0.432000000     4.863000000
H    -0.720000000     1.859000000     4.665000000
O    -0.169000000    -4.581000000     2.463000000
H    -0.353000000    -5.197000000     1.754000000
H     0.438000000    -3.948000000     2.079000000
O     1.463000000    -7.758000000     1.315000000
H     1.495000000    -8.409000000     0.614000000
H     1.559000000    -6.918000000     0.867000000
O     5.259000000    -4.432000000     2.489000000
H     4.662000000    -5.179000000     2.519000000
H     4.786000000    -3.728000000     2.932000000
O    -1.189000000     7.331000000     0.853000000
H    -1.521000000     6.687000000     0.227000000
H    -1.462000000     6.997000000     1.708000000
O    -4.114000000     2.011000000    -2.805000000
H    -4.480000000     1.149000000    -3.003000000
H    -4.684000000     2.626000000    -3.266000000
O     0.466000000     3.163000000     4.514000000
H     0.977000000     3.163000000     5.323000000
H     0.403000000     4.087000000     4.270000000
O    -2.987000000     7.371000000    -2.280000000
H    -2.763000000     6.571000000    -1.805000000
H    -3.841000000     7.625000000    -1.931000000
O    -0.869000000    -5.590000000     0.055000000
H    -1.826000000    -5.558000000     0.058000000
H    -0.617000000    -5.123000000    -0.742000000
O     4.378000000    -6.982000000     1.594000000
H     4.093000000    -6.442000000     0.857000000
H     3.739000000    -6.803000000     2.284000000
O     4.047000000    -2.149000000    -5.584000000
H     3.475000000    -2.563000000    -6.230000000
H     3.519000000    -2.113000000    -4.785000000
O     2.539000000     2.179000000    -4.200000000
H     2.259000000     3.013000000    -3.824000000
H     2.884000000     1.685000000    -3.457000000
O    -4.269000000    -0.502000000    -1.854000000
H    -3.772000000    -1.050000000    -1.247000000
H    -5.048000000    -1.018000000    -2.061000000
O     4.225000000     0.130000000     2.395000000
H     3.873000000     0.939000000     2.767000000
H     3.858000000    -0.565000000     2.942000000
O     5.381000000    -0.742000000     0.066000000
H     6.266000000    -0.595000000     0.400000000
H     4.812000000    -0.589000000     0.821000000
O    -2.549000000     6.432000000     3.053000000
H    -2.924000000     6.776000000     3.863000000
H    -2.791000000     5.505000000     3.051000000
O     2.566000000    -5.367000000     3.084000000
H     1.832000000    -5.654000000     3.627000000
H     2.246000000    -4.577000000     2.647000000
O    -2.505000000     3.040000000     6.479000000
H    -1.919000000     2.878000000     7.218000000
H    -2.048000000     2.666000000     5.725000000
O    -2.366000000     0.373000000    -4.737000000
H    -2.613000000     0.831000000    -3.933000000
H    -2.710000000    -0.513000000    -4.622000000
O     0.598000000     3.719000000     1.310000000
H     0.350000000     4.415000000     1.919000000
H     0.206000000     2.927000000     1.678000000
O     0.984000000     4.943000000    -3.119000000
H     1.464000000     5.493000000    -2.501000000
H     0.241000000     4.610000000    -2.616000000
O     4.242000000    -0.209000000    -2.278000000
H     3.976000000    -0.860000000    -2.927000000
H     4.657000000    -0.719000000    -1.583000000
O     3.491000000    -5.334000000    -2.892000000
H     3.296000000    -4.503000000    -2.459000000
H     4.193000000    -5.125000000    -3.507000000
O    -1.969000000     3.751000000    -2.916000000
H    -2.044000000     3.749000000    -3.870000000
H    -2.620000000     3.113000000    -2.623000000
O    -4.366000000     4.240000000     0.357000000
H    -5.148000000     4.527000000    -0.113000000
H    -4.460000000     3.289000000     0.421000000
O     3.395000000    -2.540000000     3.107000000
H     2.739000000    -2.640000000     2.417000000
H     2.895000000    -2.261000000     3.874000000
O     1.993000000    -1.125000000     4.983000000
H     2.658000000    -1.179000000     5.669000000
H     1.347000000    -1.790000000     5.223000000
O     0.737000000    -0.885000000    -4.723000000
H    -0.123000000    -0.501000000    -4.552000000
H     0.995000000    -0.526000000    -5.571000000
O    -3.023000000     0.329000000     2.351000000
H    -2.435000000     0.774000000     2.961000000
H    -2.797000000    -0.598000000     2.432000000
O     4.907000000    -3.376000000    -0.744000000
H     5.173000000    -2.458000000    -0.690000000
H     4.196000000    -3.458000000    -0.109000000
O    -2.012000000    -2.394000000     2.412000000
H    -2.837000000    -2.607000000     2.847000000
H    -1.484000000    -3.188000000     2.498000000
O     0.187000000    -4.665000000    -2.400000000
H     0.490000000    -4.532000000    -3.298000000
H     0.678000000    -4.025000000    -1.885000000
O     1.928000000     5.569000000    -0.505000000
H     2.804000000     5.436000000    -0.141000000
H     1.363000000     5.000000000     0.018000000
O    -3.563000000     4.152000000     3.050000000
H    -3.841000000     4.182000000     2.135000000
H    -3.957000000     3.349000000     3.393000000
O     3.466000000     3.346000000     1.493000000
H     3.795000000     2.924000000     0.699000000
H     2.528000000     3.155000000     1.495000000
O    -2.705000000    -2.076000000    -0.597000000
H    -1.876000000    -1.598000000    -0.589000000
H    -2.829000000    -2.357000000     0.309000000
O     2.819000000     1.900000000    -1.300000000
H     3.377000000     1.160000000    -1.540000000
H     2.008000000     1.497000000    -0.988000000
O    -5.013000000     1.815000000     3.684000000
H    -4.495000000     1.496000000     4.423000000
H    -4.723000000     1.285000000     2.942000000
O    -4.555000000     1.599000000     0.091000000
H    -4.345000000     1.299000000    -0.794000000
H    -4.042000000     1.029000000     0.664000000
O     0.791000000    -5.078000000    -4.991000000
H     0.657000000    -5.486000000    -5.847000000
H     1.658000000    -4.676000000    -5.051000000
O     2.854000000    -5.809000000    -0.210000000
H     3.351000000    -5.859000000    -1.027000000
H     2.286000000    -5.047000000    -0.320000000
O    -1.329000000    -1.556000000     5.762000000
H    -0.654000000    -2.179000000     5.493000000
H    -1.766000000    -1.980000000     6.500000000
O     1.595000000    -7.423000000    -3.438000000
H     2.331000000    -6.975000000    -3.022000000
H     1.040000000    -6.717000000    -3.767000000
O    -7.180000000     1.684000000     1.206000000
H    -6.363000000     1.653000000     0.709000000
H    -7.139000000     2.513000000     1.684000000
O     2.665000000    -2.390000000    -3.155000000
H     2.543000000    -2.624000000    -2.235000000
H     1.894000000    -1.866000000    -3.373000000
O    -1.328000000     0.733000000    -7.452000000
H    -0.714000000     1.440000000    -7.255000000
H    -1.627000000     0.429000000    -6.595000000
O    -2.432000000    -3.729000000    -3.327000000
H    -2.779000000    -3.471000000    -2.473000000
H    -1.863000000    -4.475000000    -3.139000000
O    -2.187000000     5.495000000    -0.785000000
H    -1.798000000     4.891000000    -1.417000000
H    -2.783000000     4.951000000    -0.270000000
