158
-3044.22597
C     0.522000000     0.653000000    -1.210000000
H     1.211000000     1.151000000    -1.887000000
C     0.507000000     1.214000000     0.090000000
H     1.013000000     2.145000000     0.334000000
C    -0.103000000     0.482000000     1.108000000
H    -0.066000000     0.846000000     2.140000000
C    -0.653000000    -0.726000000     0.890000000
H    -1.075000000    -1.269000000     1.732000000
C    -0.682000000    -1.241000000    -0.401000000
H    -1.023000000    -2.252000000    -0.608000000
C    -0.033000000    -0.588000000    -1.437000000
C     0.125000000    -1.233000000    -2.788000000
O     0.759000000    -0.647000000    -3.661000000
O    -0.125000000    -2.368000000    -3.048000000
O     1.350000000    -7.425000000    -2.606000000
H     0.935000000    -8.127000000    -3.109000000
H     1.396000000    -6.689000000    -3.215000000
O     0.345000000    -0.230000000     6.853000000
H     0.556000000    -0.843000000     6.150000000
H     1.069000000     0.397000000     6.850000000
O     0.574000000    -2.322000000     5.148000000
H     1.340000000    -2.896000000     5.145000000
H    -0.146000000    -2.882000000     4.858000000
O    -4.381000000    -0.412000000     4.447000000
H    -4.571000000     0.319000000     3.859000000
H    -3.811000000    -0.037000000     5.119000000
O     0.900000000    -4.655000000    -4.249000000
H     0.193000000    -4.966000000    -4.815000000
H     0.554000000    -3.857000000    -3.850000000
O     2.641000000    -1.212000000     3.538000000
H     3.022000000    -2.090000000     3.579000000
H     1.840000000    -1.275000000     4.058000000
O    -1.117000000    -4.062000000     3.959000000
H    -1.081000000    -5.005000000     3.802000000
H    -1.817000000    -3.750000000     3.385000000
O     0.030000000     3.738000000     3.839000000
H     0.778000000     3.141000000     3.864000000
H    -0.322000000     3.717000000     4.728000000
O     1.927000000     4.699000000    -2.946000000
H     2.371000000     4.363000000    -2.168000000
H     1.982000000     3.984000000    -3.581000000
O     3.864000000     1.036000000     3.142000000
H     4.754000000     0.738000000     3.333000000
H     3.310000000     0.283000000     3.349000000
O    -3.533000000     3.942000000    -1.874000000
H    -4.227000000     3.896000000    -1.216000000
H    -2.993000000     3.170000000    -1.707000000
O     5.576000000     0.271000000    -4.357000000
H     5.634000000     1.222000000    -4.270000000
H     4.729000000     0.046000000    -3.973000000
O     1.690000000     5.103000000     6.489000000
H     2.079000000     4.557000000     5.805000000
H     1.139000000     5.725000000     6.013000000
O    -3.037000000     1.107000000    -4.509000000
H    -2.889000000     1.997000000    -4.830000000
H    -2.517000000     1.052000000    -3.708000000
O    -0.829000000    -5.534000000    -1.014000000
H    -1.224000000    -4.923000000    -1.635000000
H    -1.484000000    -6.223000000    -0.906000000
O    -2.546000000     0.908000000     6.309000000
H    -1.906000000     0.440000000     6.845000000
H    -2.039000000     1.594000000     5.875000000
O    -3.160000000     5.381000000     1.976000000
H    -2.764000000     5.261000000     1.113000000
H    -4.049000000     5.684000000     1.791000000
O     4.837000000    -0.060000000    -1.115000000
H     4.252000000     0.076000000    -1.861000000
H     5.115000000    -0.973000000    -1.192000000
O     3.169000000    -1.213000000    -7.455000000
H     3.567000000    -2.067000000    -7.622000000
H     2.919000000    -1.241000000    -6.532000000
O     2.287000000     1.726000000     7.051000000
H     2.228000000     2.570000000     6.601000000
H     3.211000000     1.485000000     6.986000000
O    -0.452000000    -6.494000000     1.528000000
H    -0.025000000    -7.238000000     1.103000000
H    -0.653000000    -5.892000000     0.812000000
O     2.536000000    -2.808000000     0.775000000
H     1.879000000    -2.275000000     1.222000000
H     2.176000000    -2.947000000    -0.102000000
O     3.527000000     1.559000000     0.462000000
H     4.111000000     0.996000000    -0.047000000
H     3.598000000     1.230000000     1.358000000
O    -4.265000000    -3.216000000     4.528000000
H    -4.355000000    -2.288000000     4.744000000
H    -3.895000000    -3.611000000     5.317000000
O    -2.294000000    -3.662000000    -2.413000000
H    -2.509000000    -4.334000000    -3.059000000
H    -1.458000000    -3.303000000    -2.709000000
O     0.133000000     6.297000000    -1.780000000
H     0.800000000     5.681000000    -2.083000000
H     0.080000000     6.147000000    -0.836000000
O    -0.574000000    -0.206000000    -7.841000000
H    -0.288000000    -0.842000000    -7.185000000
H    -1.490000000    -0.429000000    -8.007000000
O    -2.121000000    -5.883000000    -3.942000000
H    -2.210000000    -6.834000000    -4.011000000
H    -1.830000000    -5.606000000    -4.811000000
O     2.998000000     3.931000000    -0.532000000
H     2.508000000     4.334000000     0.185000000
H     3.106000000     3.018000000    -0.265000000
O    -0.643000000     6.298000000     5.406000000
H    -0.470000000     7.165000000     5.039000000
H    -0.580000000     5.704000000     4.658000000
O    -1.112000000    -5.154000000    -6.321000000
H    -1.132000000    -5.818000000    -7.011000000
H    -1.262000000    -4.327000000    -6.779000000
O     0.588000000     1.485000000    -5.480000000
H     0.056000000     1.139000000    -6.196000000
H     0.751000000     0.729000000    -4.916000000
O     3.392000000    -0.547000000    -3.224000000
H     2.442000000    -0.445000000    -3.289000000
H     3.538000000    -1.490000000    -3.300000000
O    -5.192000000     2.024000000     2.867000000
H    -4.429000000     2.497000000     3.200000000
H    -5.179000000     2.183000000     1.923000000
O     3.062000000     3.592000000     4.588000000
H     2.861000000     4.305000000     3.982000000
H     3.418000000     2.898000000     4.032000000
O    -2.715000000     1.302000000    -0.868000000
H    -3.326000000     0.726000000    -0.409000000
H    -1.858000000     1.086000000    -0.499000000
O    -0.248000000    -2.090000000    -5.792000000
H     0.039000000    -1.552000000    -5.055000000
H    -1.005000000    -2.571000000    -5.458000000
O     2.864000000     3.006000000    -4.946000000
H     2.108000000     2.420000000    -4.978000000
H     2.837000000     3.477000000    -5.780000000
O    -3.306000000    -3.682000000     1.743000000
H    -3.865000000    -3.351000000     2.446000000
H    -3.501000000    -3.115000000     0.996000000
O    -0.842000000     3.249000000     6.261000000
H    -0.416000000     2.978000000     7.073000000
H    -1.726000000     3.502000000     6.527000000
O     1.347000000     4.818000000     1.327000000
H     0.766000000     4.224000000     1.802000000
H     1.418000000     5.587000000     1.892000000
O     1.176000000    -3.697000000    -1.182000000
H     0.966000000    -3.095000000    -1.896000000
H     0.474000000    -4.348000000    -1.203000000
O     3.432000000    -3.546000000    -3.744000000
H     3.966000000    -4.080000000    -3.157000000
H     2.661000000    -4.085000000    -3.924000000
O     2.740000000    -5.557000000     0.066000000
H     1.901000000    -5.698000000    -0.372000000
H     2.640000000    -4.716000000     0.512000000
O    -5.041000000    -0.193000000     0.808000000
H    -5.015000000    -0.621000000     1.664000000
H    -5.974000000    -0.104000000     0.613000000
O    -4.147000000    -2.600000000    -0.624000000
H    -4.145000000    -1.688000000    -0.914000000
H    -3.690000000    -3.074000000    -1.319000000
O    -3.229000000    -1.756000000    -5.102000000
H    -4.132000000    -1.863000000    -4.805000000
H    -3.002000000    -0.858000000    -4.860000000
O    -3.002000000     3.284000000     3.875000000
H    -3.123000000     4.231000000     3.805000000
H    -2.060000000     3.154000000     3.760000000
