158
-3042.33690
C     0.235000000    -0.744000000    -1.221000000
H     0.474000000    -1.109000000    -2.217000000
C    -0.128000000     0.556000000    -1.185000000
H    -0.208000000     1.061000000    -2.144000000
C    -0.322000000     1.196000000     0.029000000
H    -0.706000000     2.205000000     0.170000000
C    -0.102000000     0.494000000     1.244000000
H    -0.376000000     1.046000000     2.139000000
C     0.287000000    -0.863000000     1.208000000
H     0.465000000    -1.517000000     2.058000000
C     0.437000000    -1.473000000    -0.028000000
C     0.715000000    -2.969000000    -0.130000000
O     1.115000000    -3.429000000    -1.206000000
O     0.762000000    -3.656000000     0.908000000
O    -0.236000000    -7.398000000    -2.513000000
H    -0.962000000    -8.010000000    -2.393000000
H    -0.640000000    -6.532000000    -2.452000000
O     0.284000000    -4.989000000     5.993000000
H     1.183000000    -5.083000000     6.309000000
H     0.363000000    -4.463000000     5.198000000
O    -1.350000000     6.749000000    -3.626000000
H    -2.085000000     6.660000000    -3.018000000
H    -0.893000000     5.910000000    -3.574000000
O    -3.445000000    -4.004000000     3.611000000
H    -3.676000000    -4.845000000     4.004000000
H    -2.695000000    -4.200000000     3.049000000
O    -1.743000000    -4.790000000     1.793000000
H    -2.214000000    -5.181000000     1.057000000
H    -0.988000000    -4.358000000     1.392000000
O     0.164000000    -5.122000000    -5.959000000
H    -0.351000000    -4.474000000    -5.478000000
H    -0.488000000    -5.660000000    -6.408000000
O     3.288000000    -2.389000000     4.716000000
H     2.994000000    -3.287000000     4.870000000
H     3.284000000    -2.296000000     3.763000000
O     4.771000000    -0.011000000    -0.871000000
H     4.225000000     0.752000000    -0.680000000
H     5.628000000     0.211000000    -0.509000000
O    -2.424000000     2.488000000     3.552000000
H    -3.302000000     2.848000000     3.676000000
H    -2.509000000     1.565000000     3.790000000
O     1.107000000     0.245000000     4.312000000
H     1.370000000    -0.093000000     5.169000000
H     0.177000000     0.028000000     4.244000000
O    -4.725000000     2.960000000    -2.337000000
H    -5.507000000     2.431000000    -2.494000000
H    -4.067000000     2.332000000    -2.038000000
O    -2.961000000    -1.910000000    -2.694000000
H    -3.812000000    -2.019000000    -3.119000000
H    -2.702000000    -1.013000000    -2.905000000
O    -0.569000000    -1.902000000     4.884000000
H    -0.067000000    -2.579000000     4.430000000
H    -1.462000000    -2.244000000     4.912000000
O    -4.116000000     4.074000000    -4.615000000
H    -4.389000000     3.698000000    -3.778000000
H    -3.497000000     3.437000000    -4.973000000
O    -2.426000000     4.142000000    -1.118000000
H    -3.166000000     3.918000000    -1.683000000
H    -2.538000000     5.075000000    -0.936000000
O     3.143000000    -2.346000000    -5.901000000
H     3.101000000    -3.254000000    -6.201000000
H     2.720000000    -2.357000000    -5.042000000
O     3.906000000    -2.466000000     1.684000000
H     3.729000000    -1.530000000     1.774000000
H     3.039000000    -2.869000000     1.628000000
O     2.958000000    -0.064000000     2.120000000
H     2.207000000     0.100000000     2.691000000
H     2.770000000     0.439000000     1.327000000
O     2.694000000     2.631000000     3.979000000
H     2.294000000     1.805000000     4.247000000
H     2.807000000     3.119000000     4.795000000
O     1.808000000     4.524000000    -0.908000000
H     1.100000000     4.826000000    -0.339000000
H     2.582000000     4.993000000    -0.596000000
O    -1.736000000    -7.198000000     3.253000000
H    -2.092000000    -7.434000000     2.397000000
H    -1.090000000    -6.516000000     3.065000000
O    -3.170000000    -2.048000000     0.611000000
H    -2.956000000    -1.393000000    -0.053000000
H    -3.165000000    -2.879000000     0.137000000
O    -0.169000000     3.994000000    -2.686000000
H     0.456000000     4.270000000    -2.016000000
H    -0.933000000     3.696000000    -2.193000000
O     2.954000000    -5.388000000     2.932000000
H     3.355000000    -5.542000000     2.076000000
H     3.426000000    -5.973000000     3.526000000
O     3.544000000    -4.768000000    -2.913000000
H     4.324000000    -4.213000000    -2.935000000
H     2.880000000    -4.268000000    -3.388000000
O    -2.585000000     7.140000000     1.028000000
H    -2.765000000     6.287000000     1.424000000
H    -1.963000000     7.555000000     1.625000000
O     1.002000000    -3.859000000     3.565000000
H     0.771000000    -3.727000000     2.645000000
H     1.662000000    -4.551000000     3.550000000
O    -3.759000000     6.988000000    -1.636000000
H    -3.315000000     6.817000000    -0.805000000
H    -4.566000000     7.439000000    -1.389000000
O     5.001000000    -0.341000000     4.302000000
H     4.500000000    -1.065000000     4.678000000
H     4.491000000    -0.067000000     3.540000000
O     3.233000000     4.270000000    -3.764000000
H     4.042000000     3.769000000    -3.655000000
H     2.535000000     3.633000000    -3.610000000
O     2.659000000     1.884000000    -0.071000000
H     2.652000000     2.804000000    -0.338000000
H     1.735000000     1.660000000     0.039000000
O     2.126000000     0.242000000    -4.243000000
H     2.661000000     0.678000000    -4.906000000
H     2.730000000     0.074000000    -3.520000000
O     0.220000000    -0.662000000    -5.983000000
H     0.788000000    -0.432000000    -5.248000000
H     0.320000000    -1.610000000    -6.075000000
O     3.595000000    -1.885000000    -2.207000000
H     2.913000000    -2.406000000    -1.782000000
H     3.842000000    -1.233000000    -1.551000000
O     0.234000000     5.746000000     0.752000000
H     0.110000000     6.666000000     0.985000000
H     0.282000000     5.291000000     1.592000000
O    -3.151000000     0.936000000    -1.105000000
H    -3.577000000     0.982000000    -0.249000000
H    -2.220000000     0.843000000    -0.905000000
O     1.399000000    -3.099000000    -3.968000000
H     1.468000000    -3.033000000    -3.016000000
H     0.467000000    -2.981000000    -4.150000000
O    -3.392000000    -5.617000000    -0.300000000
H    -2.568000000    -5.434000000    -0.752000000
H    -3.403000000    -6.569000000    -0.200000000
O    -2.557000000     5.171000000     2.789000000
H    -2.923000000     4.859000000     3.617000000
H    -1.901000000     4.515000000     2.555000000
O    -2.180000000     2.624000000    -6.405000000
H    -2.467000000     1.724000000    -6.560000000
H    -1.360000000     2.534000000    -5.919000000
O     0.073000000     3.839000000     2.896000000
H    -0.465000000     3.226000000     3.397000000
H     0.932000000     3.419000000     2.848000000
O     2.736000000    -6.051000000    -0.277000000
H     2.074000000    -5.448000000     0.061000000
H     2.828000000    -5.814000000    -1.200000000
O    -1.182000000    -4.895000000    -2.073000000
H    -0.403000000    -4.510000000    -1.672000000
H    -1.372000000    -4.327000000    -2.820000000
O    -6.585000000     2.979000000     1.619000000
H    -6.764000000     3.682000000     0.994000000
H    -6.010000000     2.378000000     1.146000000
O    -4.703000000     0.983000000     1.092000000
H    -5.144000000     0.274000000     0.625000000
H    -4.437000000     0.592000000     1.924000000
O    -4.196000000    -0.903000000     2.944000000
H    -3.861000000    -1.260000000     3.767000000
H    -3.849000000    -1.489000000     2.271000000
O    -0.003000000     2.244000000    -4.884000000
H     0.201000000     2.841000000    -4.164000000
H     0.756000000     1.662000000    -4.934000000
O    -1.606000000    -3.369000000    -4.506000000
H    -2.080000000    -2.755000000    -3.946000000
H    -2.244000000    -3.628000000    -5.171000000
