158
-3059.85318
C     1.007000000    -0.033000000    -1.094000000
H     1.722000000     0.043000000    -1.909000000
C     1.306000000     0.225000000     0.276000000
H     2.337000000     0.515000000     0.465000000
C     0.313000000     0.050000000     1.229000000
H     0.552000000     0.156000000     2.237000000
C    -0.984000000    -0.182000000     0.795000000
H    -1.773000000    -0.288000000     1.536000000
C    -1.328000000    -0.381000000    -0.551000000
H    -2.365000000    -0.656000000    -0.724000000
C    -0.332000000    -0.267000000    -1.544000000
C    -0.780000000    -0.193000000    -3.003000000
O     0.036000000    -0.049000000    -3.935000000
O    -1.953000000    -0.251000000    -3.244000000
O     0.564000000    -4.540000000    -1.993000000
H     0.785000000    -4.019000000    -2.764000000
H    -0.312000000    -4.879000000    -2.175000000
O     3.530000000     4.481000000     6.342000000
H     3.382000000     3.909000000     5.589000000
H     4.292000000     4.105000000     6.783000000
O     1.187000000    -2.681000000    -3.941000000
H     0.914000000    -1.801000000    -4.202000000
H     1.928000000    -2.882000000    -4.513000000
O     0.770000000     1.938000000     4.156000000
H     1.247000000     1.112000000     4.233000000
H     0.313000000     2.029000000     4.993000000
O    -1.936000000    -4.927000000    -2.645000000
H    -2.185000000    -4.194000000    -2.082000000
H    -2.288000000    -5.699000000    -2.203000000
O    -5.993000000     0.192000000    -3.951000000
H    -5.448000000    -0.223000000    -3.282000000
H    -5.491000000     0.099000000    -4.760000000
O    -3.799000000     4.018000000    -4.525000000
H    -2.983000000     4.508000000    -4.630000000
H    -3.572000000     3.121000000    -4.771000000
O     1.015000000     3.738000000     2.279000000
H     0.931000000     4.496000000     2.858000000
H     1.178000000     3.003000000     2.870000000
O     5.711000000     2.301000000     0.823000000
H     5.298000000     3.137000000     1.043000000
H     5.588000000     2.215000000    -0.122000000
O     3.019000000    -1.970000000     1.928000000
H     2.941000000    -2.864000000     2.259000000
H     2.258000000    -1.858000000     1.358000000
O     2.674000000     2.917000000    -2.009000000
H     2.505000000     3.332000000    -2.855000000
H     3.286000000     2.208000000    -2.208000000
O    -0.775000000     3.858000000    -4.190000000
H    -0.736000000     3.422000000    -5.041000000
H    -0.362000000     3.241000000    -3.586000000
O     4.740000000    -0.551000000    -5.671000000
H     4.190000000     0.205000000    -5.878000000
H     5.539000000    -0.412000000    -6.178000000
O    -3.840000000     1.950000000     2.535000000
H    -3.189000000     2.521000000     2.943000000
H    -4.665000000     2.427000000     2.620000000
O     4.152000000     0.723000000     2.617000000
H     4.798000000     1.011000000     1.972000000
H     3.705000000    -0.012000000     2.197000000
O     0.781000000    -3.397000000     5.261000000
H    -0.037000000    -3.022000000     5.587000000
H     0.564000000    -3.722000000     4.387000000
O    -3.870000000     0.091000000     4.510000000
H    -3.760000000     0.595000000     5.316000000
H    -3.630000000     0.700000000     3.811000000
O    -3.078000000     1.578000000    -5.025000000
H    -3.359000000     0.961000000    -5.701000000
H    -2.619000000     1.036000000    -4.383000000
O    -6.350000000    -1.685000000    -1.308000000
H    -5.479000000    -1.655000000    -1.704000000
H    -6.407000000    -2.559000000    -0.921000000
O     5.846000000     1.923000000    -2.181000000
H     6.688000000     1.470000000    -2.214000000
H     5.205000000     1.254000000    -2.421000000
O    -1.116000000     4.726000000     0.797000000
H    -0.236000000     4.421000000     1.017000000
H    -1.557000000     3.952000000     0.447000000
O     3.417000000    -3.029000000    -5.271000000
H     3.662000000    -2.137000000    -5.515000000
H     4.200000000    -3.551000000    -5.449000000
O     1.158000000    -3.008000000     0.044000000
H     0.922000000    -2.148000000    -0.304000000
H     1.015000000    -3.609000000    -0.687000000
O    -4.201000000    -1.375000000    -2.900000000
H    -4.178000000    -2.042000000    -3.587000000
H    -3.328000000    -0.981000000    -2.921000000
O     3.704000000    -2.229000000    -1.791000000
H     3.781000000    -2.591000000    -0.909000000
H     3.159000000    -2.858000000    -2.262000000
O     6.297000000    -3.179000000    -1.871000000
H     5.879000000    -3.622000000    -1.133000000
H     5.674000000    -2.498000000    -2.125000000
O    -0.910000000    -1.882000000    -8.285000000
H    -1.586000000    -2.181000000    -7.677000000
H    -1.102000000    -2.342000000    -9.102000000
O    -4.346000000    -3.279000000    -4.887000000
H    -4.219000000    -4.222000000    -4.993000000
H    -3.561000000    -2.887000000    -5.270000000
O     3.224000000     1.809000000    -5.993000000
H     2.783000000     2.266000000    -5.277000000
H     3.316000000     2.471000000    -6.679000000
O     2.776000000     4.827000000    -0.083000000
H     2.231000000     4.411000000     0.584000000
H     2.606000000     4.324000000    -0.879000000
O    -4.812000000     2.354000000    -2.354000000
H    -4.352000000     2.702000000    -3.118000000
H    -5.402000000     1.690000000    -2.713000000
O    -0.324000000     0.236000000    -6.639000000
H    -0.510000000    -0.623000000    -7.018000000
H    -0.372000000     0.095000000    -5.693000000
O     1.502000000    -0.891000000     7.679000000
H     2.346000000    -1.336000000     7.751000000
H     1.366000000    -0.784000000     6.738000000
O     3.863000000     0.291000000    -2.774000000
H     3.754000000    -0.426000000    -2.149000000
H     3.596000000    -0.082000000    -3.614000000
O    -3.141000000     2.421000000    -0.137000000
H    -3.829000000     2.171000000    -0.752000000
H    -3.326000000     1.911000000     0.652000000
O    -0.298000000     2.759000000     6.758000000
H    -0.013000000     3.517000000     7.268000000
H    -1.045000000     2.410000000     7.244000000
O    -0.060000000     2.874000000    -1.487000000
H     0.789000000     2.474000000    -1.297000000
H    -0.700000000     2.213000000    -1.222000000
O    -1.786000000    -2.408000000    -5.644000000
H    -1.431000000    -1.895000000    -4.918000000
H    -1.396000000    -3.275000000    -5.538000000
O     0.416000000     2.839000000    -6.644000000
H     0.196000000     1.910000000    -6.705000000
H     1.098000000     2.967000000    -7.303000000
O    -4.192000000    -2.462000000     2.698000000
H    -5.052000000    -2.878000000     2.643000000
H    -4.358000000    -1.622000000     3.126000000
O     5.018000000    -0.344000000     5.045000000
H     5.267000000    -0.092000000     4.156000000
H     5.291000000    -1.259000000     5.120000000
O    -2.421000000    -3.478000000     4.389000000
H    -2.901000000    -3.192000000     3.612000000
H    -3.079000000    -3.500000000     5.083000000
O     1.230000000    -4.455000000     2.658000000
H     0.894000000    -5.349000000     2.716000000
H     0.989000000    -4.165000000     1.778000000
O     1.974000000    -0.563000000     4.539000000
H     1.832000000    -1.224000000     3.861000000
H     2.921000000    -0.569000000     4.684000000
O    -2.468000000    -3.639000000     0.082000000
H    -1.982000000    -2.919000000     0.485000000
H    -3.368000000    -3.519000000     0.385000000
O     3.438000000     2.764000000     4.253000000
H     2.668000000     2.653000000     3.694000000
H     3.917000000     1.940000000     4.167000000
O    -4.694000000    -0.568000000    -6.374000000
H    -4.275000000    -1.420000000    -6.497000000
H    -5.401000000    -0.554000000    -7.019000000
O    -1.882000000     3.095000000     4.114000000
H    -1.650000000     3.445000000     4.974000000
H    -1.136000000     2.547000000     3.870000000
