158
-3038.18786
C    -0.414000000    -0.390000000    -1.401000000
H    -0.630000000    -0.675000000    -2.427000000
C     0.356000000     0.748000000    -1.030000000
H     0.956000000     1.262000000    -1.777000000
C     0.680000000     0.970000000     0.315000000
H     1.446000000     1.743000000     0.548000000
C     0.248000000     0.100000000     1.305000000
H     0.534000000     0.302000000     2.334000000
C    -0.591000000    -0.936000000     0.923000000
H    -1.027000000    -1.579000000     1.682000000
C    -0.913000000    -1.190000000    -0.408000000
C    -1.774000000    -2.378000000    -0.793000000
O    -1.773000000    -2.758000000    -1.950000000
O    -2.585000000    -2.789000000     0.063000000
O     2.823000000    -3.840000000    -0.850000000
H     2.024000000    -3.948000000    -1.366000000
H     3.454000000    -3.459000000    -1.461000000
O    -2.846000000    -7.338000000    -0.967000000
H    -3.485000000    -7.967000000    -1.304000000
H    -2.602000000    -6.813000000    -1.728000000
O    -1.618000000    -0.299000000     4.424000000
H    -2.498000000     0.039000000     4.258000000
H    -1.132000000     0.454000000     4.759000000
O     2.309000000     2.487000000     2.984000000
H     2.203000000     1.952000000     3.771000000
H     1.859000000     3.306000000     3.189000000
O     2.103000000    -2.446000000     1.202000000
H     1.477000000    -1.816000000     0.845000000
H     2.408000000    -2.939000000     0.440000000
O    -1.700000000    -5.141000000    -6.112000000
H    -2.607000000    -5.430000000    -6.012000000
H    -1.697000000    -4.241000000    -5.786000000
O    -5.233000000    -2.179000000    -5.150000000
H    -5.010000000    -2.217000000    -4.220000000
H    -4.389000000    -2.214000000    -5.600000000
O     2.281000000     6.084000000     0.884000000
H     2.545000000     5.857000000     1.775000000
H     2.919000000     6.741000000     0.605000000
O    -1.758000000     3.597000000     2.870000000
H    -1.971000000     3.739000000     3.793000000
H    -2.117000000     2.733000000     2.671000000
O    -3.992000000     0.457000000    -1.607000000
H    -4.129000000    -0.486000000    -1.516000000
H    -3.228000000     0.533000000    -2.179000000
O     1.374000000     2.724000000    -3.776000000
H     1.212000000     1.967000000    -4.340000000
H     2.077000000     2.441000000    -3.191000000
O     3.187000000     0.492000000     6.465000000
H     3.053000000     0.286000000     5.540000000
H     2.585000000    -0.091000000     6.929000000
O    -6.249000000    -2.389000000     2.863000000
H    -6.405000000    -3.083000000     3.504000000
H    -7.108000000    -1.989000000     2.730000000
O     3.656000000     0.393000000     1.298000000
H     3.650000000    -0.046000000     2.149000000
H     2.974000000     1.061000000     1.368000000
O    -0.010000000    -6.814000000    -3.592000000
H     0.581000000    -6.134000000    -3.915000000
H    -0.882000000    -6.424000000    -3.658000000
O    -4.089000000    -3.843000000     4.849000000
H    -4.284000000    -4.122000000     3.955000000
H    -4.897000000    -4.010000000     5.334000000
O     0.715000000     4.555000000     3.238000000
H     0.614000000     5.488000000     3.423000000
H    -0.167000000     4.257000000     3.018000000
O    -4.354000000    -4.764000000    -0.501000000
H    -3.766000000    -4.035000000    -0.306000000
H    -3.929000000    -5.228000000    -1.222000000
O     5.514000000     0.176000000    -0.690000000
H     5.899000000     1.047000000    -0.596000000
H     4.843000000     0.135000000    -0.009000000
O     0.418000000    -5.617000000     1.777000000
H    -0.104000000    -4.920000000     2.177000000
H    -0.227000000    -6.195000000     1.370000000
O     0.563000000     0.409000000    -5.235000000
H     1.098000000    -0.338000000    -4.968000000
H     0.471000000     0.312000000    -6.183000000
O     2.428000000    -1.464000000    -4.411000000
H     3.092000000    -1.029000000    -4.946000000
H     2.929000000    -1.985000000    -3.784000000
O     3.498000000     5.098000000    -1.593000000
H     3.218000000     5.248000000    -0.690000000
H     4.452000000     5.167000000    -1.562000000
O    -4.584000000    -2.521000000    -2.401000000
H    -5.178000000    -3.228000000    -2.147000000
H    -3.755000000    -2.741000000    -1.977000000
O     5.558000000    -1.098000000     3.178000000
H     6.405000000    -0.975000000     3.607000000
H     5.741000000    -1.700000000     2.456000000
O     5.054000000     2.902000000     2.540000000
H     4.122000000     2.706000000     2.632000000
H     5.383000000     2.936000000     3.438000000
O    -2.840000000     3.703000000    -0.247000000
H    -1.891000000     3.811000000    -0.308000000
H    -3.125000000     4.408000000     0.335000000
O     4.549000000    -3.045000000     1.574000000
H     3.668000000    -2.724000000     1.381000000
H     4.459000000    -3.507000000     2.407000000
O     0.643000000    -3.332000000    -2.617000000
H     0.574000000    -2.761000000    -3.381000000
H    -0.244000000    -3.360000000    -2.257000000
O    -1.062000000     6.046000000    -2.084000000
H    -1.858000000     5.810000000    -2.559000000
H    -1.055000000     5.464000000    -1.324000000
O    -2.743000000     1.486000000     2.000000000
H    -2.581000000     1.575000000     1.060000000
H    -3.043000000     0.583000000     2.106000000
O     3.145000000    -0.312000000     3.937000000
H     4.029000000    -0.582000000     3.688000000
H     2.654000000    -1.131000000     4.001000000
O     5.994000000     5.522000000     2.619000000
H     5.567000000     5.955000000     3.358000000
H     5.706000000     4.611000000     2.676000000
O    -1.961000000    -4.418000000     2.225000000
H    -2.885000000    -4.653000000     2.314000000
H    -1.930000000    -3.862000000     1.446000000
O    -2.649000000    -5.385000000    -2.916000000
H    -2.946000000    -5.462000000    -3.823000000
H    -2.182000000    -4.550000000    -2.888000000
O    -2.123000000     0.646000000    -4.111000000
H    -1.173000000     0.543000000    -4.159000000
H    -2.286000000     1.526000000    -4.449000000
O    -6.661000000    -3.319000000    -0.077000000
H    -6.051000000    -4.020000000    -0.306000000
H    -6.273000000    -2.907000000     0.694000000
O    -4.709000000    -4.824000000     2.410000000
H    -5.636000000    -4.592000000     2.367000000
H    -4.668000000    -5.713000000     2.058000000
O    -4.369000000    -1.046000000     1.744000000
H    -3.673000000    -1.535000000     1.306000000
H    -4.989000000    -1.716000000     2.032000000
O     1.776000000    -2.706000000     4.007000000
H     1.652000000    -2.670000000     3.058000000
H     0.894000000    -2.826000000     4.359000000
O    -0.221000000     2.055000000     5.039000000
H    -0.111000000     2.843000000     4.507000000
H    -0.024000000     2.339000000     5.932000000
O     2.911000000     5.104000000    -4.050000000
H     2.307000000     4.363000000    -4.003000000
H     3.148000000     5.278000000    -3.139000000
O     6.394000000     2.654000000     0.174000000
H     6.394000000     3.560000000    -0.134000000
H     5.690000000     2.621000000     0.822000000
O     0.230000000     7.826000000    -0.118000000
H     0.946000000     7.237000000     0.120000000
H    -0.270000000     7.341000000    -0.775000000
O     3.790000000     1.970000000    -2.450000000
H     4.705000000     2.138000000    -2.673000000
H     3.782000000     1.066000000    -2.135000000
O    -0.441000000     4.257000000     0.221000000
H     0.419000000     4.676000000     0.182000000
H    -0.378000000     3.647000000     0.955000000
O    -0.740000000    -2.881000000     4.747000000
H    -1.116000000    -3.335000000     3.993000000
H    -1.100000000    -1.995000000     4.697000000
O    -2.412000000    -2.255000000    -4.559000000
H    -2.316000000    -1.304000000    -4.513000000
H    -2.291000000    -2.551000000    -3.656000000
