158
-3044.37242
C    -1.123000000    -0.740000000    -0.841000000
H    -1.689000000    -1.364000000    -1.529000000
C     0.158000000    -0.268000000    -1.316000000
H     0.609000000    -0.699000000    -2.206000000
C     1.078000000     0.503000000    -0.551000000
H     2.075000000     0.823000000    -0.872000000
C     0.649000000     0.815000000     0.748000000
H     1.361000000     1.240000000     1.451000000
C    -0.607000000     0.431000000     1.223000000
H    -0.807000000     0.657000000     2.267000000
C    -1.468000000    -0.372000000     0.440000000
C    -2.670000000    -0.960000000     1.212000000
O    -3.654000000    -1.142000000     0.524000000
O    -2.691000000    -1.126000000     2.417000000
O     5.749000000     3.043000000    -2.680000000
H     6.688000000     2.992000000    -2.503000000
H     5.411000000     2.185000000    -2.426000000
O    -3.519000000    -4.928000000     4.125000000
H    -2.983000000    -5.346000000     4.799000000
H    -3.224000000    -5.323000000     3.304000000
O    -1.760000000     1.930000000    -1.991000000
H    -1.312000000     1.523000000    -1.250000000
H    -2.611000000     1.493000000    -2.025000000
O    -0.087000000     0.974000000    -4.818000000
H     0.739000000     0.550000000    -5.051000000
H     0.167000000     1.851000000    -4.530000000
O     4.046000000     5.266000000    -2.012000000
H     3.368000000     4.591000000    -2.051000000
H     4.870000000     4.779000000    -2.048000000
O    -1.191000000     4.031000000     0.617000000
H    -1.696000000     4.800000000     0.351000000
H    -1.720000000     3.287000000     0.330000000
O     2.434000000    -2.625000000    -3.541000000
H     2.562000000    -2.277000000    -4.424000000
H     1.493000000    -2.793000000    -3.484000000
O    -2.766000000     1.233000000    -5.476000000
H    -2.654000000     1.069000000    -6.412000000
H    -1.889000000     1.125000000    -5.107000000
O     2.596000000     2.814000000    -2.404000000
H     3.230000000     2.599000000    -1.719000000
H     1.840000000     3.161000000    -1.930000000
O    -4.373000000    -3.595000000    -3.074000000
H    -3.735000000    -4.043000000    -3.628000000
H    -4.362000000    -2.688000000    -3.382000000
O    -2.601000000    -5.712000000     1.796000000
H    -2.491000000    -5.126000000     1.047000000
H    -1.709000000    -5.897000000     2.088000000
O    -4.100000000     0.403000000    -1.540000000
H    -3.784000000    -0.236000000    -0.901000000
H    -4.440000000     1.124000000    -1.009000000
O     4.124000000    -0.763000000    -6.411000000
H     4.010000000    -0.223000000    -5.629000000
H     3.379000000    -1.363000000    -6.399000000
O     4.875000000     1.759000000     3.652000000
H     4.909000000     0.887000000     4.046000000
H     4.284000000     2.255000000     4.219000000
O    -0.926000000     2.790000000     3.870000000
H    -0.114000000     3.237000000     3.629000000
H    -1.607000000     3.246000000     3.376000000
O     0.813000000     4.221000000    -1.325000000
H     0.923000000     5.158000000    -1.164000000
H     0.000000000     3.994000000    -0.873000000
O    -4.382000000     1.175000000     3.147000000
H    -4.995000000     1.139000000     3.882000000
H    -3.800000000     0.428000000     3.284000000
O    -0.526000000    -2.034000000     3.466000000
H    -0.476000000    -1.424000000     4.201000000
H    -1.216000000    -1.679000000     2.906000000
O     3.721000000     1.411000000    -4.635000000
H     4.547000000     1.020000000    -4.351000000
H     3.453000000     1.964000000    -3.901000000
O    -7.105000000    -3.725000000     2.031000000
H    -6.651000000    -4.474000000     1.642000000
H    -6.414000000    -3.080000000     2.185000000
O    -0.306000000    -4.257000000     1.721000000
H    -0.174000000    -3.793000000     0.895000000
H    -0.212000000    -3.581000000     2.393000000
O    -4.292000000    -1.051000000    -3.898000000
H    -4.316000000    -0.486000000    -3.126000000
H    -3.384000000    -1.013000000    -4.196000000
O    -8.593000000    -0.272000000     0.597000000
H    -7.654000000    -0.433000000     0.687000000
H    -8.992000000    -0.786000000     1.299000000
O     2.685000000    -1.127000000     4.102000000
H     2.108000000    -0.824000000     3.401000000
H     3.167000000    -0.344000000     4.370000000
O    -5.953000000    -0.243000000     1.350000000
H    -5.160000000    -0.524000000     0.893000000
H    -5.660000000     0.464000000     1.924000000
O     2.361000000     2.592000000     4.771000000
H     2.149000000     3.306000000     4.169000000
H     1.529000000     2.380000000     5.194000000
O     3.231000000    -4.495000000     1.565000000
H     2.984000000    -3.626000000     1.247000000
H     2.404000000    -4.896000000     1.832000000
O    -7.067000000    -1.180000000     4.912000000
H    -7.470000000    -2.031000000     5.086000000
H    -6.186000000    -1.391000000     4.604000000
O     0.998000000     3.370000000    -4.960000000
H     1.256000000     3.612000000    -4.070000000
H     1.691000000     2.783000000    -5.260000000
O     0.046000000    -3.767000000    -3.616000000
H     0.065000000    -4.475000000    -4.260000000
H    -0.681000000    -3.209000000    -3.895000000
O     4.336000000     2.203000000    -0.110000000
H     4.611000000     1.442000000     0.400000000
H     4.783000000     2.942000000     0.302000000
O     4.077000000     4.095000000     2.123000000
H     4.171000000     3.217000000     2.493000000
H     3.138000000     4.188000000     1.962000000
O     5.703000000    -0.353000000    -3.560000000
H     6.631000000    -0.184000000    -3.721000000
H     5.693000000    -1.152000000    -3.033000000
O     0.968000000     4.327000000     2.708000000
H     0.238000000     4.258000000     2.092000000
H     0.930000000     5.229000000     3.023000000
O    -3.717000000     2.310000000     0.535000000
H    -4.318000000     3.009000000     0.277000000
H    -3.917000000     2.150000000     1.457000000
O    -0.733000000    -0.008000000     5.150000000
H    -0.789000000     0.855000000     4.740000000
H    -1.113000000     0.115000000     6.020000000
O    -4.650000000    -2.269000000     3.669000000
H    -4.169000000    -1.776000000     3.004000000
H    -4.083000000    -3.014000000     3.872000000
O    -0.864000000    -3.033000000     6.371000000
H    -1.160000000    -2.332000000     6.951000000
H    -1.277000000    -2.839000000     5.529000000
O     5.597000000    -0.920000000     1.322000000
H     4.850000000    -1.369000000     1.717000000
H     6.363000000    -1.332000000     1.722000000
O    -1.743000000    -5.207000000    -1.527000000
H    -2.417000000    -4.571000000    -1.287000000
H    -1.228000000    -4.766000000    -2.203000000
O     3.396000000    -4.762000000    -1.918000000
H     4.302000000    -4.715000000    -2.224000000
H     2.993000000    -3.955000000    -2.237000000
O    -2.868000000     2.337000000     6.187000000
H    -2.825000000     2.368000000     5.231000000
H    -3.679000000     1.866000000     6.376000000
O     4.681000000    -2.355000000    -1.489000000
H     4.155000000    -2.163000000    -2.265000000
H     4.061000000    -2.299000000    -0.761000000
O    -1.229000000    -1.293000000    -4.170000000
H    -1.020000000    -1.443000000    -5.092000000
H    -0.901000000    -0.412000000    -3.990000000
O     7.289000000    -2.486000000    -1.384000000
H     6.343000000    -2.337000000    -1.355000000
H     7.670000000    -1.662000000    -1.079000000
O     2.473000000    -2.152000000     0.300000000
H     1.891000000    -1.396000000     0.374000000
H     1.938000000    -2.825000000    -0.122000000
O     0.701000000    -3.649000000    -0.984000000
H     0.465000000    -4.528000000    -0.688000000
H     0.563000000    -3.670000000    -1.931000000
O    -3.710000000    -3.740000000    -0.420000000
H    -3.674000000    -2.853000000    -0.063000000
H    -4.232000000    -3.656000000    -1.218000000
