158
-3041.91340
C    -1.088000000    -0.110000000    -0.993000000
H    -1.842000000    -0.093000000    -1.776000000
C     0.305000000    -0.081000000    -1.243000000
H     0.622000000    -0.199000000    -2.276000000
C     1.240000000    -0.011000000    -0.201000000
H     2.292000000     0.104000000    -0.475000000
C     0.759000000     0.109000000     1.107000000
H     1.497000000     0.216000000     1.898000000
C    -0.612000000     0.107000000     1.415000000
H    -0.913000000     0.269000000     2.447000000
C    -1.514000000    -0.035000000     0.342000000
C    -3.012000000    -0.212000000     0.615000000
O    -3.720000000    -0.550000000    -0.322000000
O    -3.477000000    -0.045000000     1.707000000
O     5.359000000     0.413000000    -1.397000000
H     6.162000000    -0.057000000    -1.168000000
H     5.212000000     1.009000000    -0.663000000
O    -7.319000000     2.998000000    -1.356000000
H    -6.937000000     2.121000000    -1.387000000
H    -7.545000000     3.194000000    -2.265000000
O    -0.480000000     0.096000000    -5.233000000
H    -0.405000000     0.683000000    -5.985000000
H    -0.435000000     0.675000000    -4.472000000
O    -2.666000000     2.147000000     2.977000000
H    -2.168000000     2.640000000     2.325000000
H    -2.979000000     1.375000000     2.507000000
O    -0.013000000     2.799000000    -4.006000000
H    -0.497000000     3.216000000    -3.293000000
H     0.906000000     2.879000000    -3.751000000
O    -1.709000000    -2.285000000    -4.742000000
H    -1.145000000    -1.543000000    -4.959000000
H    -2.463000000    -1.892000000    -4.302000000
O    -4.227000000    -4.440000000    -2.298000000
H    -3.976000000    -5.072000000    -2.973000000
H    -3.406000000    -4.222000000    -1.857000000
O    -5.891000000     0.609000000    -1.378000000
H    -5.193000000     0.276000000    -0.814000000
H    -6.274000000    -0.175000000    -1.772000000
O     1.668000000     2.942000000    -1.748000000
H     2.046000000     3.315000000    -0.952000000
H     1.412000000     2.054000000    -1.498000000
O     1.877000000    -3.361000000    -4.512000000
H     1.785000000    -3.664000000    -5.416000000
H     2.173000000    -2.454000000    -4.592000000
O    -8.157000000     1.543000000     1.097000000
H    -7.628000000     0.860000000     1.509000000
H    -7.716000000     1.720000000     0.267000000
O     3.928000000     0.612000000     4.784000000
H     3.248000000     1.242000000     5.024000000
H     4.384000000     1.021000000     4.049000000
O    -2.706000000    -4.567000000     0.331000000
H    -1.788000000    -4.762000000     0.141000000
H    -3.148000000    -5.414000000     0.272000000
O     5.556000000     3.981000000    -1.810000000
H     5.454000000     3.105000000    -2.182000000
H     6.266000000     4.375000000    -2.317000000
O    -3.537000000     1.544000000     6.568000000
H    -3.745000000     0.786000000     6.022000000
H    -3.439000000     1.185000000     7.450000000
O    -0.859000000     3.433000000     1.384000000
H    -0.209000000     4.096000000     1.615000000
H    -0.403000000     2.854000000     0.773000000
O    -6.981000000     0.468000000     4.498000000
H    -7.787000000     0.017000000     4.750000000
H    -6.692000000     0.016000000     3.705000000
O    -1.006000000    -2.513000000     4.076000000
H    -1.586000000    -1.809000000     3.786000000
H    -0.424000000    -2.665000000     3.332000000
O     3.767000000     4.394000000     0.258000000
H     4.358000000     4.580000000    -0.471000000
H     4.200000000     3.692000000     0.744000000
O     5.084000000     2.134000000     1.240000000
H     5.972000000     2.480000000     1.332000000
H     5.152000000     1.221000000     1.522000000
O    -7.265000000    -2.175000000    -0.344000000
H    -7.535000000    -2.015000000    -1.248000000
H    -7.354000000    -3.121000000    -0.231000000
O     5.420000000    -2.489000000     0.031000000
H     6.144000000    -3.114000000     0.009000000
H     5.407000000    -2.106000000    -0.846000000
O    -4.521000000    -3.956000000     4.094000000
H    -4.454000000    -3.546000000     3.231000000
H    -3.812000000    -4.599000000     4.109000000
O    -6.164000000    -0.133000000     1.710000000
H    -6.253000000    -0.598000000     0.877000000
H    -5.252000000    -0.272000000     1.965000000
O    -4.586000000     3.983000000    -3.606000000
H    -4.696000000     3.253000000    -2.996000000
H    -4.774000000     4.762000000    -3.082000000
O     2.226000000     3.023000000     3.596000000
H     1.962000000     3.570000000     2.856000000
H     1.436000000     2.535000000     3.828000000
O    -1.874000000     4.294000000    -2.299000000
H    -2.579000000     3.884000000    -1.798000000
H    -2.161000000     4.232000000    -3.210000000
O     3.806000000    -0.713000000    -3.494000000
H     3.739000000    -0.148000000    -4.264000000
H     4.372000000    -0.231000000    -2.891000000
O    -0.097000000     1.780000000     5.005000000
H    -0.949000000     2.083000000     4.691000000
H    -0.306000000     1.125000000     5.671000000
O     2.571000000     5.000000000    -3.590000000
H     2.368000000     4.376000000    -2.893000000
H     2.372000000     5.856000000    -3.211000000
O    -0.865000000    -4.580000000    -2.737000000
H    -1.502000000    -4.962000000    -3.340000000
H    -0.652000000    -3.729000000    -3.120000000
O     5.405000000    -0.506000000     1.831000000
H     5.958000000    -1.022000000     2.417000000
H     5.129000000    -1.126000000     1.155000000
O     5.112000000     4.539000000     3.142000000
H     4.843000000     3.920000000     2.463000000
H     4.295000000     4.943000000     3.434000000
O     2.658000000    -5.085000000    -2.541000000
H     2.400000000    -4.400000000    -3.157000000
H     3.570000000    -5.275000000    -2.762000000
O    -5.371000000     2.619000000     1.258000000
H    -5.540000000     1.694000000     1.433000000
H    -5.515000000     3.052000000     2.099000000
O    -2.851000000    -0.442000000     4.430000000
H    -3.355000000    -0.891000000     3.752000000
H    -2.614000000     0.397000000     4.037000000
O    -4.619000000    -3.136000000     1.546000000
H    -4.057000000    -3.695000000     1.010000000
H    -4.576000000    -2.277000000     1.125000000
O     2.135000000    -0.354000000    -7.525000000
H     1.963000000     0.150000000    -6.730000000
H     3.049000000    -0.626000000    -7.444000000
O     3.524000000     1.274000000    -5.432000000
H     3.321000000     2.101000000    -4.995000000
H     3.746000000     1.524000000    -6.329000000
O    -5.422000000     2.950000000     4.290000000
H    -5.949000000     2.159000000     4.401000000
H    -4.582000000     2.739000000     4.696000000
O    -1.070000000    -0.718000000     6.417000000
H    -1.621000000    -0.971000000     5.676000000
H    -0.228000000    -1.140000000     6.244000000
O     3.586000000    -4.439000000     0.199000000
H     3.440000000    -4.652000000    -0.723000000
H     4.033000000    -3.593000000     0.181000000
O     6.051000000    -2.779000000    -2.824000000
H     5.414000000    -2.401000000    -3.430000000
H     5.689000000    -3.636000000    -2.600000000
O     7.756000000    -0.970000000    -1.513000000
H     8.547000000    -0.711000000    -1.984000000
H     7.231000000    -1.436000000    -2.164000000
O    -5.972000000    -0.118000000    -4.610000000
H    -5.063000000    -0.233000000    -4.333000000
H    -6.490000000    -0.451000000    -3.877000000
O    -4.209000000     2.926000000    -1.289000000
H    -4.749000000     2.144000000    -1.168000000
H    -4.508000000     3.531000000    -0.611000000
O     0.218000000    -3.077000000     1.454000000
H     0.979000000    -3.566000000     1.139000000
H    -0.002000000    -2.487000000     0.733000000
O    -4.853000000    -1.715000000    -2.552000000
H    -4.361000000    -1.373000000    -1.806000000
H    -4.567000000    -2.625000000    -2.631000000
