158
-3030.85948
C    -0.733000000    -1.132000000    -0.521000000
H    -1.229000000    -1.995000000    -0.957000000
C     0.494000000    -0.613000000    -1.018000000
H     0.897000000    -1.080000000    -1.913000000
C     1.175000000     0.393000000    -0.327000000
H     2.135000000     0.760000000    -0.683000000
C     0.473000000     1.002000000     0.703000000
H     0.948000000     1.781000000     1.294000000
C    -0.761000000     0.566000000     1.100000000
H    -1.272000000     1.130000000     1.877000000
C    -1.376000000    -0.561000000     0.583000000
C    -2.816000000    -0.959000000     0.877000000
O    -3.468000000    -1.829000000     0.254000000
O    -3.335000000    -0.314000000     1.701000000
O     4.534000000     0.069000000     0.195000000
H     4.332000000    -0.533000000    -0.520000000
H     3.932000000    -0.180000000     0.896000000
O    -4.960000000    -5.804000000    -0.166000000
H    -4.351000000    -6.486000000     0.118000000
H    -5.070000000    -5.957000000    -1.104000000
O    -0.690000000     4.819000000    -2.323000000
H    -0.407000000     5.129000000    -1.463000000
H    -0.922000000     3.901000000    -2.183000000
O     1.483000000     0.033000000    -6.267000000
H     0.965000000     0.832000000    -6.364000000
H     2.342000000     0.339000000    -5.977000000
O     2.633000000     4.533000000    -0.475000000
H     2.786000000     3.727000000    -0.969000000
H     3.256000000     4.491000000     0.250000000
O    -3.633000000     5.084000000     0.123000000
H    -3.064000000     5.354000000    -0.598000000
H    -3.833000000     4.166000000    -0.061000000
O     4.541000000    -1.829000000    -1.700000000
H     4.205000000    -2.538000000    -2.248000000
H     5.141000000    -2.261000000    -1.092000000
O    -2.618000000     0.598000000    -4.758000000
H    -3.568000000     0.674000000    -4.855000000
H    -2.500000000    -0.041000000    -4.055000000
O    -5.056000000     3.187000000     3.297000000
H    -5.063000000     2.234000000     3.203000000
H    -4.141000000     3.434000000     3.163000000
O     6.851000000     5.143000000    -0.116000000
H     6.152000000     4.564000000     0.188000000
H     7.082000000     5.663000000     0.654000000
O    -2.835000000    -3.877000000    -2.507000000
H    -2.944000000    -4.719000000    -2.949000000
H    -2.276000000    -4.071000000    -1.755000000
O    -3.300000000    -1.118000000    -2.317000000
H    -3.450000000    -1.579000000    -1.492000000
H    -2.990000000    -1.796000000    -2.917000000
O    -3.887000000     2.110000000     0.525000000
H    -3.666000000     1.250000000     0.884000000
H    -3.890000000     2.693000000     1.284000000
O    -6.265000000    -4.219000000     1.664000000
H    -5.704000000    -4.739000000     1.088000000
H    -6.261000000    -3.344000000     1.276000000
O    -5.559000000     1.723000000     6.191000000
H    -5.615000000     1.524000000     5.257000000
H    -5.243000000     0.912000000     6.590000000
O     4.719000000     5.052000000     1.815000000
H     5.512000000     4.560000000     2.027000000
H     4.573000000     5.612000000     2.578000000
O     1.437000000    -1.393000000     2.591000000
H     0.971000000    -1.007000000     1.850000000
H     2.296000000    -0.970000000     2.581000000
O    -2.570000000    -1.411000000     6.519000000
H    -3.499000000    -1.524000000     6.721000000
H    -2.562000000    -0.997000000     5.656000000
O     4.570000000     2.194000000     4.125000000
H     5.274000000     2.355000000     3.497000000
H     4.032000000     2.985000000     4.090000000
O    -8.574000000     1.489000000     1.379000000
H    -8.823000000     2.080000000     0.669000000
H    -7.734000000     1.122000000     1.102000000
O    -5.200000000     0.216000000     3.689000000
H    -6.052000000    -0.217000000     3.639000000
H    -4.783000000     0.020000000     2.850000000
O    -2.667000000    -4.414000000     3.315000000
H    -3.600000000    -4.434000000     3.525000000
H    -2.370000000    -5.313000000     3.456000000
O     0.380000000     2.711000000     4.501000000
H     0.671000000     1.820000000     4.695000000
H    -0.194000000     2.940000000     5.232000000
O     4.394000000     1.414000000    -5.769000000
H     4.828000000     1.220000000    -4.938000000
H     5.054000000     1.885000000    -6.279000000
O    -5.755000000    -0.001000000    -2.403000000
H    -4.868000000    -0.340000000    -2.284000000
H    -5.877000000     0.024000000    -3.352000000
O     2.521000000    -4.302000000     2.216000000
H     1.942000000    -4.252000000     1.455000000
H     2.403000000    -3.463000000     2.662000000
O    -6.304000000    -1.816000000     0.166000000
H    -5.357000000    -1.730000000     0.056000000
H    -6.674000000    -1.438000000    -0.632000000
O     1.146000000     0.020000000     5.330000000
H     0.723000000    -0.604000000     5.920000000
H     1.186000000    -0.435000000     4.489000000
O     0.213000000    -4.002000000    -2.439000000
H    -0.691000000    -3.732000000    -2.604000000
H     0.744000000    -3.360000000    -2.910000000
O     7.124000000     0.426000000     1.452000000
H     7.354000000    -0.172000000     2.163000000
H     6.362000000     0.022000000     1.036000000
O     5.321000000     0.513000000    -3.277000000
H     4.787000000    -0.160000000    -2.855000000
H     6.188000000     0.115000000    -3.358000000
O    -1.537000000    -2.146000000    -5.273000000
H    -1.372000000    -3.057000000    -5.515000000
H    -2.413000000    -1.963000000    -5.612000000
O     4.438000000     2.389000000    -1.518000000
H     4.462000000     1.700000000    -0.853000000
H     4.891000000     2.010000000    -2.271000000
O     0.127000000    -2.910000000     5.209000000
H    -0.802000000    -2.750000000     5.376000000
H     0.218000000    -2.824000000     4.260000000
O     1.194000000     3.255000000    -5.458000000
H     1.734000000     3.409000000    -6.234000000
H     1.333000000     4.028000000    -4.912000000
O     1.071000000    -1.717000000    -4.291000000
H     1.291000000    -1.036000000    -4.927000000
H     0.137000000    -1.877000000    -4.425000000
O     3.956000000    -0.454000000     3.258000000
H     4.516000000    -1.000000000     3.811000000
H     4.201000000     0.444000000     3.481000000
O     0.909000000     5.755000000     2.740000000
H     0.249000000     5.502000000     2.095000000
H     1.119000000     6.663000000     2.523000000
O    -2.113000000     2.616000000    -1.607000000
H    -1.510000000     1.926000000    -1.328000000
H    -2.872000000     2.517000000    -1.033000000
O    -6.010000000    -3.020000000    -2.760000000
H    -5.596000000    -2.588000000    -3.507000000
H    -5.360000000    -2.966000000    -2.060000000
O    -2.276000000    -1.679000000     3.630000000
H    -2.431000000    -2.559000000     3.287000000
H    -2.592000000    -1.094000000     2.941000000
O    -6.317000000     1.560000000    -0.129000000
H    -6.294000000     0.950000000    -0.867000000
H    -5.396000000     1.735000000     0.065000000
O    -2.408000000     4.217000000     2.413000000
H    -2.514000000     4.859000000     1.712000000
H    -1.507000000     3.907000000     2.320000000
O     2.803000000     4.120000000     4.512000000
H     2.055000000     3.542000000     4.364000000
H     2.458000000     5.001000000     4.363000000
O    -7.109000000    -1.550000000     2.793000000
H    -8.057000000    -1.662000000     2.863000000
H    -6.948000000    -1.449000000     1.855000000
O     0.683000000    -4.134000000     0.262000000
H     0.572000000    -4.102000000    -0.688000000
H    -0.189000000    -3.949000000     0.612000000
O     0.053000000     4.999000000     0.395000000
H    -0.068000000     5.873000000     0.024000000
H     0.933000000     4.742000000     0.120000000
O    -1.926000000    -3.971000000     0.594000000
H    -2.542000000    -3.275000000     0.361000000
H    -2.336000000    -4.414000000     1.337000000
