158
-3023.72330
C    -1.033000000    -0.753000000    -0.862000000
H    -1.669000000    -1.389000000    -1.472000000
C     0.212000000    -0.196000000    -1.274000000
H     0.606000000    -0.357000000    -2.275000000
C     1.061000000     0.440000000    -0.371000000
H     2.103000000     0.732000000    -0.647000000
C     0.723000000     0.627000000     0.971000000
H     1.470000000     1.060000000     1.632000000
C    -0.465000000     0.108000000     1.387000000
H    -0.710000000     0.251000000     2.436000000
C    -1.412000000    -0.549000000     0.518000000
C    -2.753000000    -1.069000000     1.053000000
O    -3.459000000    -1.694000000     0.282000000
O    -3.248000000    -0.527000000     1.997000000
O     5.582000000     3.420000000    -3.525000000
H     6.391000000     2.916000000    -3.444000000
H     4.885000000     2.766000000    -3.469000000
O    -0.521000000     2.615000000    -2.490000000
H    -0.367000000     1.876000000    -1.900000000
H    -1.256000000     2.336000000    -3.036000000
O     1.647000000    -3.292000000    -6.098000000
H     1.063000000    -3.592000000    -5.401000000
H     2.479000000    -3.122000000    -5.655000000
O    -0.378000000    -0.852000000    -5.394000000
H     0.066000000    -0.804000000    -6.241000000
H    -0.800000000     0.002000000    -5.297000000
O    -0.885000000     3.582000000     1.331000000
H    -1.048000000     4.173000000     2.067000000
H     0.066000000     3.483000000     1.310000000
O     3.776000000    -1.305000000    -2.496000000
H     3.630000000    -2.173000000    -2.119000000
H     3.783000000    -1.453000000    -3.442000000
O    -4.548000000    -0.765000000    -1.913000000
H    -4.553000000     0.192000000    -1.924000000
H    -4.111000000    -0.994000000    -1.093000000
O     4.630000000     2.788000000    -0.249000000
H     5.206000000     2.150000000     0.174000000
H     3.998000000     3.026000000     0.429000000
O    -1.873000000    -5.347000000    -3.277000000
H    -1.505000000    -4.789000000    -3.962000000
H    -2.048000000    -4.750000000    -2.550000000
O     3.915000000     1.118000000     2.434000000
H     4.071000000     0.586000000     1.653000000
H     3.345000000     0.578000000     2.982000000
O    -6.940000000    -0.813000000     2.448000000
H    -6.335000000    -0.424000000     3.080000000
H    -6.494000000    -1.604000000     2.146000000
O     3.701000000     5.448000000    -4.104000000
H     2.824000000     5.288000000    -3.755000000
H     4.214000000     4.692000000    -3.819000000
O     2.392000000     1.181000000     5.925000000
H     1.606000000     1.364000000     5.411000000
H     2.284000000     0.274000000     6.213000000
O     6.052000000     5.355000000    -0.423000000
H     6.555000000     5.033000000     0.325000000
H     5.489000000     4.619000000    -0.667000000
O    -3.224000000     2.278000000     1.956000000
H    -3.018000000     1.355000000     1.808000000
H    -2.531000000     2.755000000     1.498000000
O     2.094000000     2.209000000    -4.576000000
H     1.412000000     2.256000000    -3.906000000
H     2.843000000     1.816000000    -4.128000000
O    -7.498000000    -4.985000000     0.885000000
H    -7.398000000    -5.802000000     0.397000000
H    -6.604000000    -4.727000000     1.106000000
O    -3.429000000     0.410000000     6.212000000
H    -4.206000000     0.624000000     5.696000000
H    -3.121000000    -0.420000000     5.848000000
O     0.137000000    -1.298000000     4.771000000
H    -0.245000000    -0.450000000     4.996000000
H     0.650000000    -1.542000000     5.541000000
O     2.382000000     3.240000000     1.631000000
H     2.833000000     4.010000000     1.978000000
H     2.805000000     2.499000000     2.065000000
O    -5.074000000    -3.161000000     1.873000000
H    -4.423000000    -3.601000000     2.419000000
H    -4.575000000    -2.827000000     1.127000000
O    -3.011000000    -4.169000000     3.189000000
H    -2.936000000    -4.920000000     3.778000000
H    -2.394000000    -4.356000000     2.482000000
O    -4.454000000    -5.807000000     0.099000000
H    -4.322000000    -6.330000000     0.890000000
H    -3.616000000    -5.367000000    -0.040000000
O     1.527000000    -2.613000000     2.926000000
H     2.246000000    -2.523000000     3.552000000
H     0.801000000    -2.133000000     3.325000000
O     4.600000000     4.036000000     3.104000000
H     5.224000000     3.369000000     3.389000000
H     5.088000000     4.858000000     3.156000000
O    -2.570000000    -2.216000000    -4.504000000
H    -2.999000000    -1.933000000    -3.697000000
H    -1.835000000    -1.613000000    -4.609000000
O    -0.092000000     1.727000000     5.198000000
H    -0.322000000     1.828000000     6.122000000
H    -0.478000000     2.492000000     4.771000000
O     6.710000000    -1.288000000    -1.265000000
H     6.911000000    -2.182000000    -0.990000000
H     5.795000000    -1.159000000    -1.013000000
O     4.173000000    -2.062000000    -5.181000000
H     4.885000000    -2.595000000    -4.828000000
H     4.489000000    -1.779000000    -6.039000000
O    -7.011000000    -1.942000000    -0.458000000
H    -6.187000000    -1.546000000    -0.740000000
H    -6.749000000    -2.628000000     0.157000000
O    -6.922000000     1.464000000     0.509000000
H    -7.502000000     0.989000000    -0.086000000
H    -6.584000000     0.792000000     1.102000000
O    -0.857000000    -4.126000000    -5.404000000
H    -1.406000000    -3.342000000    -5.375000000
H    -0.793000000    -4.340000000    -6.335000000
O     4.102000000     1.448000000    -2.658000000
H     4.365000000     0.533000000    -2.753000000
H     4.197000000     1.629000000    -1.723000000
O     4.100000000    -0.613000000     0.298000000
H     3.666000000    -0.657000000    -0.554000000
H     4.315000000    -1.522000000     0.505000000
O    -2.692000000     1.269000000    -3.659000000
H    -2.686000000     1.441000000    -4.600000000
H    -3.620000000     1.216000000    -3.431000000
O    -4.889000000     1.935000000    -1.788000000
H    -4.782000000     2.167000000    -0.866000000
H    -5.138000000     2.755000000    -2.215000000
O    -3.269000000    -1.812000000     4.708000000
H    -3.088000000    -2.702000000     4.406000000
H    -3.367000000    -1.301000000     3.904000000
O     5.039000000    -3.061000000     1.061000000
H     5.824000000    -3.413000000     0.642000000
H     4.468000000    -3.821000000     1.178000000
O    -0.698000000    -4.536000000     1.725000000
H    -0.231000000    -3.768000000     1.398000000
H    -0.090000000    -4.943000000     2.342000000
O    -6.557000000    -3.062000000     4.602000000
H    -5.788000000    -3.051000000     4.032000000
H    -6.209000000    -2.885000000     5.477000000
O     2.978000000    -4.037000000    -1.855000000
H     2.413000000    -3.546000000    -1.258000000
H     2.694000000    -4.946000000    -1.761000000
O    -5.025000000     0.587000000     3.691000000
H    -4.738000000     1.496000000     3.607000000
H    -4.354000000     0.080000000     3.233000000
O     1.345000000     4.688000000    -2.798000000
H     0.612000000     5.304000000    -2.784000000
H     0.951000000     3.843000000    -2.581000000
O    -6.160000000    -0.791000000    -3.945000000
H    -6.696000000    -0.033000000    -3.714000000
H    -5.427000000    -0.761000000    -3.329000000
O    -1.800000000     3.759000000     4.130000000
H    -2.286000000     3.200000000     3.525000000
H    -2.469000000     4.125000000     4.709000000
O     1.428000000    -2.611000000     0.200000000
H     1.127000000    -1.805000000    -0.220000000
H     1.383000000    -2.423000000     1.138000000
O     6.878000000     1.463000000     1.108000000
H     6.286000000     1.489000000     1.860000000
H     7.591000000     0.887000000     1.384000000
O    -2.154000000    -4.106000000    -0.913000000
H    -2.587000000    -3.353000000    -0.510000000
H    -1.317000000    -4.175000000    -0.454000000
