158
-3048.52490
C     1.467000000     0.071000000     0.153000000
H     2.539000000    -0.013000000     0.311000000
C     0.635000000    -0.788000000     0.894000000
H     0.978000000    -1.458000000     1.678000000
C    -0.752000000    -0.721000000     0.644000000
H    -1.500000000    -1.348000000     1.160000000
C    -1.282000000     0.097000000    -0.322000000
H    -2.338000000     0.143000000    -0.578000000
C    -0.365000000     0.893000000    -1.024000000
H    -0.775000000     1.605000000    -1.736000000
C     0.998000000     0.948000000    -0.832000000
C     1.876000000     1.942000000    -1.563000000
O     1.363000000     2.756000000    -2.288000000
O     3.072000000     1.948000000    -1.395000000
O     7.634000000     2.151000000    -2.530000000
H     8.212000000     1.388000000    -2.521000000
H     7.671000000     2.469000000    -3.433000000
O     2.433000000     2.400000000    -5.104000000
H     2.382000000     2.603000000    -4.170000000
H     3.361000000     2.222000000    -5.260000000
O     4.097000000     2.414000000     1.219000000
H     3.762000000     3.299000000     1.360000000
H     3.899000000     2.226000000     0.302000000
O    -2.972000000    -7.143000000     0.518000000
H    -2.644000000    -7.651000000    -0.224000000
H    -2.564000000    -6.283000000     0.419000000
O    -0.867000000     2.678000000     1.965000000
H    -1.017000000     1.952000000     1.359000000
H    -0.999000000     3.463000000     1.434000000
O     1.558000000    -5.464000000     1.156000000
H     1.011000000    -5.662000000     1.916000000
H     2.182000000    -4.811000000     1.473000000
O     3.393000000    -0.875000000     5.615000000
H     4.190000000    -0.729000000     5.105000000
H     3.618000000    -1.589000000     6.212000000
O    -4.901000000     1.618000000     1.100000000
H    -4.447000000     2.162000000     0.457000000
H    -5.332000000     2.244000000     1.682000000
O    -1.007000000     3.991000000    -2.348000000
H    -0.092000000     3.714000000    -2.301000000
H    -1.453000000     3.270000000    -2.793000000
O     3.233000000     4.779000000     2.165000000
H     2.555000000     5.337000000     1.783000000
H     3.860000000     5.393000000     2.548000000
O    -4.892000000    -2.575000000     5.978000000
H    -5.031000000    -1.628000000     5.992000000
H    -4.455000000    -2.740000000     5.143000000
O     0.172000000     4.630000000    -5.826000000
H     0.020000000     3.825000000    -5.330000000
H     0.791000000     5.127000000    -5.291000000
O     4.923000000     3.427000000    -2.558000000
H     5.584000000     2.741000000    -2.652000000
H     4.209000000     3.009000000    -2.078000000
O    -2.891000000     2.049000000    -3.200000000
H    -3.817000000     1.823000000    -3.291000000
H    -2.424000000     1.258000000    -3.469000000
O     1.515000000    -1.555000000    -4.060000000
H     2.139000000    -1.793000000    -3.374000000
H     0.878000000    -2.270000000    -4.062000000
O     6.469000000     5.758000000    -2.881000000
H     5.691000000     5.240000000    -2.672000000
H     6.775000000     6.083000000    -2.034000000
O    -1.768000000    -2.222000000     7.106000000
H    -1.975000000    -2.205000000     6.171000000
H    -2.435000000    -2.791000000     7.489000000
O     5.876000000    -0.317000000     4.306000000
H     5.859000000    -0.072000000     3.381000000
H     5.840000000     0.516000000     4.776000000
O    -0.798000000    -4.822000000    -0.440000000
H    -0.465000000    -5.321000000    -1.186000000
H    -0.048000000    -4.745000000     0.151000000
O    -2.315000000     6.766000000    -2.674000000
H    -1.594000000     6.164000000    -2.489000000
H    -1.891000000     7.615000000    -2.802000000
O     1.616000000     2.079000000     3.375000000
H     0.834000000     2.033000000     2.826000000
H     2.155000000     2.756000000     2.967000000
O    -3.828000000    -3.357000000     3.497000000
H    -4.521000000    -2.777000000     3.182000000
H    -3.355000000    -3.617000000     2.707000000
O     3.413000000     7.582000000    -2.579000000
H     3.581000000     7.635000000    -1.638000000
H     3.229000000     6.656000000    -2.738000000
O     4.588000000     0.517000000    -5.084000000
H     4.617000000    -0.295000000    -5.591000000
H     5.030000000     1.160000000    -5.638000000
O     3.601000000    -3.726000000     1.731000000
H     3.592000000    -2.941000000     1.183000000
H     4.150000000    -3.488000000     2.479000000
O    -1.256000000    -4.401000000    -3.801000000
H    -0.947000000    -5.232000000    -3.440000000
H    -1.583000000    -3.917000000    -3.043000000
O    -1.613000000    -1.686000000    -2.691000000
H    -1.446000000    -1.645000000    -1.749000000
H    -1.013000000    -1.043000000    -3.069000000
O    -1.474000000     0.579000000    -4.993000000
H    -0.556000000     0.377000000    -5.175000000
H    -1.874000000     0.673000000    -5.858000000
O     4.569000000    -0.060000000    -2.213000000
H     4.858000000     0.062000000    -3.117000000
H     3.960000000     0.661000000    -2.057000000
O     1.280000000     0.188000000    -6.149000000
H     1.570000000    -0.576000000    -5.650000000
H     1.872000000     0.890000000    -5.879000000
O     5.471000000    -1.635000000    -0.342000000
H     5.079000000    -1.056000000    -0.996000000
H     5.496000000    -1.110000000     0.458000000
O    -2.407000000    -1.082000000     4.788000000
H    -2.328000000    -0.204000000     4.416000000
H    -2.768000000    -1.612000000     4.076000000
O    -4.988000000    -3.002000000    -0.768000000
H    -5.215000000    -2.346000000    -0.109000000
H    -5.603000000    -3.719000000    -0.613000000
O    -4.175000000    -1.940000000    -3.218000000
H    -4.658000000    -2.177000000    -2.426000000
H    -3.273000000    -1.818000000    -2.921000000
O    -5.171000000     0.375000000    -4.183000000
H    -4.942000000    -0.552000000    -4.108000000
H    -6.003000000     0.378000000    -4.657000000
O     5.566000000     0.243000000     1.631000000
H     6.271000000     0.701000000     1.174000000
H     4.811000000     0.827000000     1.554000000
O    -4.027000000     3.491000000    -0.967000000
H    -3.959000000     4.309000000    -0.474000000
H    -3.181000000     3.404000000    -1.405000000
O    -0.640000000    -5.823000000     2.600000000
H    -1.371000000    -5.222000000     2.742000000
H    -1.051000000    -6.632000000     2.295000000
O    -5.319000000    -1.221000000     2.853000000
H    -5.953000000    -0.656000000     3.295000000
H    -5.586000000    -1.208000000     1.934000000
O    -3.112000000    -4.162000000     1.090000000
H    -2.301000000    -4.284000000     0.596000000
H    -3.726000000    -3.794000000     0.455000000
O     2.251000000     5.072000000    -3.752000000
H     2.042000000     4.498000000    -3.015000000
H     3.081000000     4.734000000    -4.090000000
O    -0.832000000     4.807000000     0.340000000
H    -1.171000000     5.701000000     0.354000000
H    -0.929000000     4.527000000    -0.570000000
O     3.882000000    -2.830000000    -2.896000000
H     4.690000000    -3.168000000    -3.283000000
H     4.176000000    -2.191000000    -2.247000000
O     1.887000000    -3.124000000     4.739000000
H     2.030000000    -2.229000000     5.046000000
H     1.534000000    -3.585000000     5.500000000
O    -2.159000000     1.653000000     3.908000000
H    -1.448000000     1.963000000     3.347000000
H    -2.957000000     1.872000000     3.427000000
O     1.466000000     0.903000000     5.768000000
H     2.333000000     0.498000000     5.757000000
H     1.444000000     1.445000000     4.980000000
O     4.849000000     2.845000000     4.031000000
H     4.165000000     2.542000000     3.433000000
H     5.666000000     2.693000000     3.557000000
O    -6.241000000    -0.642000000     0.282000000
H    -5.775000000     0.117000000     0.634000000
H    -7.058000000    -0.282000000    -0.062000000
