158
-3039.02585
C     0.076000000     1.463000000    -0.030000000
H     0.136000000     2.546000000     0.043000000
C     1.146000000     0.626000000     0.051000000
H     2.121000000     1.097000000     0.140000000
C     0.995000000    -0.776000000    -0.033000000
H     1.821000000    -1.420000000     0.006000000
C    -0.276000000    -1.343000000    -0.061000000
H    -0.368000000    -2.426000000    -0.086000000
C    -1.396000000    -0.443000000    -0.168000000
H    -2.404000000    -0.809000000    -0.343000000
C    -1.224000000     0.953000000    -0.133000000
C    -2.518000000     1.751000000    -0.114000000
O    -2.458000000     2.895000000    -0.532000000
O    -3.558000000     1.359000000     0.439000000
O    -4.447000000     0.688000000    -4.627000000
H    -3.799000000     1.349000000    -4.384000000
H    -3.928000000    -0.047000000    -4.953000000
O     4.229000000    -2.952000000    -4.697000000
H     3.972000000    -2.065000000    -4.447000000
H     3.615000000    -3.520000000    -4.232000000
O    -1.543000000     4.215000000     1.585000000
H    -1.968000000     3.761000000     0.858000000
H    -2.228000000     4.772000000     1.953000000
O     1.285000000     3.417000000    -3.397000000
H     0.479000000     3.861000000    -3.136000000
H     1.262000000     3.423000000    -4.354000000
O    -4.925000000     5.671000000    -2.049000000
H    -4.064000000     5.899000000    -1.698000000
H    -4.916000000     4.715000000    -2.100000000
O    -3.192000000    -0.174000000     2.726000000
H    -3.549000000     0.164000000     1.905000000
H    -2.484000000     0.430000000     2.947000000
O    -1.038000000     4.338000000    -2.252000000
H    -1.542000000     3.834000000    -1.613000000
H    -1.458000000     5.198000000    -2.265000000
O    -3.102000000    -3.492000000     1.453000000
H    -2.807000000    -2.724000000     1.944000000
H    -2.309000000    -4.012000000     1.325000000
O    -0.733000000    -4.967000000     0.608000000
H    -0.353000000    -5.241000000    -0.226000000
H     0.012000000    -4.646000000     1.117000000
O    -3.894000000     5.901000000     2.251000000
H    -3.988000000     6.802000000     2.563000000
H    -4.699000000     5.732000000     1.762000000
O     5.881000000    -5.282000000     1.666000000
H     5.045000000    -5.116000000     1.231000000
H     6.116000000    -4.443000000     2.062000000
O    -6.029000000    -1.088000000    -3.413000000
H    -6.076000000    -0.786000000    -2.505000000
H    -5.555000000    -0.395000000    -3.872000000
O    -2.824000000     6.974000000    -0.550000000
H    -2.637000000     7.072000000     0.383000000
H    -2.163000000     7.514000000    -0.985000000
O     0.255000000     0.932000000    -3.896000000
H     0.437000000     0.638000000    -4.788000000
H     0.843000000     1.676000000    -3.764000000
O    -5.832000000    -0.009000000    -0.819000000
H    -6.486000000     0.255000000    -0.171000000
H    -5.022000000     0.406000000    -0.524000000
O    -4.435000000    -4.230000000    -3.846000000
H    -4.005000000    -4.274000000    -2.992000000
H    -5.347000000    -4.459000000    -3.666000000
O     6.415000000    -2.628000000     2.106000000
H     6.646000000    -2.833000000     3.012000000
H     5.473000000    -2.460000000     2.132000000
O    -2.481000000     2.297000000    -3.810000000
H    -2.043000000     3.143000000    -3.715000000
H    -1.773000000     1.679000000    -3.993000000
O    -4.617000000     2.832000000     2.208000000
H    -4.367000000     3.667000000     1.811000000
H    -4.383000000     2.175000000     1.552000000
O     1.046000000     5.341000000     1.198000000
H     0.183000000     4.932000000     1.133000000
H     0.964000000     6.154000000     0.700000000
O     3.276000000    -4.053000000    -2.485000000
H     3.443000000    -4.144000000    -1.547000000
H     2.364000000    -4.324000000    -2.593000000
O     2.750000000    -4.019000000     4.662000000
H     1.948000000    -4.355000000     5.061000000
H     2.846000000    -3.138000000     5.023000000
O    -2.008000000    -1.954000000    -5.509000000
H    -1.537000000    -1.946000000    -4.676000000
H    -2.199000000    -2.879000000    -5.668000000
O    -2.856000000     2.605000000     4.532000000
H    -3.276000000     2.842000000     3.706000000
H    -1.926000000     2.782000000     4.387000000
O     3.775000000     3.534000000    -2.023000000
H     2.923000000     3.693000000    -2.429000000
H     3.815000000     2.584000000    -1.915000000
O     1.288000000    -4.015000000     1.963000000
H     1.388000000    -3.234000000     2.508000000
H     1.694000000    -4.716000000     2.472000000
O     6.632000000     2.044000000     0.972000000
H     6.539000000     1.842000000     0.041000000
H     6.973000000     1.238000000     1.359000000
O     5.093000000     4.158000000     2.262000000
H     5.387000000     3.545000000     1.588000000
H     5.681000000     4.908000000     2.176000000
O     3.346000000    -5.547000000     0.058000000
H     2.677000000    -5.999000000     0.571000000
H     3.743000000    -6.234000000    -0.478000000
O     3.537000000    -0.756000000    -3.223000000
H     3.744000000    -1.309000000    -2.470000000
H     2.638000000    -0.467000000    -3.068000000
O    -3.060000000    -5.595000000    -1.076000000
H    -2.519000000    -5.132000000    -0.437000000
H    -2.432000000    -5.983000000    -1.686000000
O     2.686000000     3.484000000     3.328000000
H     2.524000000     4.275000000     3.841000000
H     3.479000000     3.680000000     2.829000000
O    -0.696000000    -1.423000000    -3.039000000
H    -0.537000000    -0.480000000    -3.077000000
H    -0.294000000    -1.700000000    -2.216000000
O     5.833000000    -1.376000000    -0.203000000
H     4.981000000    -1.227000000     0.208000000
H     6.402000000    -1.649000000     0.517000000
O     3.854000000     0.893000000     3.498000000
H     3.267000000     1.528000000     3.089000000
H     3.572000000     0.858000000     4.412000000
O    -5.434000000    -2.474000000     3.107000000
H    -5.372000000    -2.529000000     2.154000000
H    -4.556000000    -2.699000000     3.417000000
O    -6.819000000     2.432000000     3.533000000
H    -6.570000000     1.596000000     3.926000000
H    -6.065000000     2.679000000     2.997000000
O    -7.586000000     3.407000000    -2.521000000
H    -7.491000000     4.133000000    -1.904000000
H    -7.014000000     2.722000000    -2.176000000
O     6.450000000     0.305000000    -2.042000000
H     6.418000000    -0.404000000    -2.684000000
H     6.249000000    -0.118000000    -1.208000000
O    -0.018000000     2.727000000     3.188000000
H    -0.390000000     3.356000000     2.571000000
H     0.902000000     2.981000000     3.263000000
O     0.566000000    -4.662000000    -2.150000000
H     0.219000000    -5.425000000    -2.613000000
H    -0.110000000    -3.991000000    -2.254000000
O    -2.805000000    -2.591000000     4.401000000
H    -2.885000000    -1.658000000     4.201000000
H    -3.110000000    -2.670000000     5.304000000
O     0.952000000    -1.680000000     3.555000000
H     0.655000000    -0.829000000     3.233000000
H     0.501000000    -1.789000000     4.392000000
O     3.966000000    -1.463000000     1.944000000
H     3.120000000    -1.704000000     2.320000000
H     4.138000000    -0.585000000     2.284000000
O    -4.689000000     3.058000000    -1.942000000
H    -4.378000000     2.529000000    -2.676000000
H    -3.978000000     3.022000000    -1.302000000
O    -5.486000000    -3.047000000     0.273000000
H    -4.581000000    -3.008000000     0.583000000
H    -5.612000000    -2.224000000    -0.199000000
O    -6.042000000     5.680000000     0.675000000
H    -6.977000000     5.475000000     0.668000000
H    -5.774000000     5.608000000    -0.241000000
O    -1.694000000    -7.091000000     2.226000000
H    -1.926000000    -7.630000000     1.470000000
H    -1.381000000    -6.269000000     1.847000000
