158
-3035.83078
C    -0.371000000     1.425000000     0.164000000
H    -0.688000000     2.464000000     0.121000000
C     0.453000000     0.917000000    -0.816000000
H     0.805000000     1.557000000    -1.621000000
C     0.807000000    -0.442000000    -0.848000000
H     1.426000000    -0.884000000    -1.572000000
C     0.208000000    -1.287000000     0.133000000
H     0.413000000    -2.348000000     0.021000000
C    -0.664000000    -0.781000000     1.085000000
H    -1.111000000    -1.378000000     1.876000000
C    -1.001000000     0.608000000     1.084000000
C    -1.918000000     1.176000000     2.127000000
O    -2.410000000     2.252000000     1.978000000
O    -2.330000000     0.455000000     2.989000000
O     5.414000000    -3.104000000    -0.875000000
H     5.366000000    -2.180000000    -0.629000000
H     6.224000000    -3.175000000    -1.381000000
O     6.698000000    -0.272000000    -3.571000000
H     6.903000000    -0.195000000    -2.639000000
H     7.343000000    -0.894000000    -3.907000000
O    -0.884000000     4.390000000     1.686000000
H    -1.525000000     3.684000000     1.770000000
H    -0.430000000     4.403000000     2.528000000
O     1.442000000     6.196000000    -1.990000000
H     0.503000000     6.163000000    -1.806000000
H     1.527000000     5.818000000    -2.866000000
O    -4.415000000     5.407000000     0.322000000
H    -4.647000000     6.242000000     0.727000000
H    -5.019000000     5.323000000    -0.416000000
O    -1.098000000    -0.744000000     4.822000000
H    -1.835000000    -0.796000000     5.430000000
H    -1.470000000    -0.360000000     4.027000000
O    -1.757000000     5.232000000    -0.729000000
H    -1.446000000     4.940000000     0.128000000
H    -2.712000000     5.198000000    -0.662000000
O    -5.885000000     3.794000000    -1.527000000
H    -6.091000000     3.386000000    -2.368000000
H    -5.286000000     3.180000000    -1.103000000
O     4.259000000    -3.554000000    -5.443000000
H     4.092000000    -3.195000000    -4.571000000
H     3.393000000    -3.787000000    -5.776000000
O     6.816000000    -0.353000000    -0.826000000
H     6.000000000     0.035000000    -0.507000000
H     7.231000000    -0.715000000    -0.043000000
O    -2.882000000    -3.246000000     1.153000000
H    -3.274000000    -3.216000000     2.026000000
H    -2.015000000    -3.627000000     1.293000000
O    -3.267000000    -0.663000000     6.480000000
H    -3.024000000    -1.386000000     7.058000000
H    -4.203000000    -0.787000000     6.323000000
O    -6.087000000     1.475000000     0.916000000
H    -6.592000000     2.287000000     0.952000000
H    -5.364000000     1.668000000     0.319000000
O     0.842000000     1.025000000    -4.657000000
H     0.753000000     1.443000000    -5.514000000
H     1.758000000     1.164000000    -4.417000000
O    -4.916000000    -0.319000000     2.770000000
H    -5.124000000     0.364000000     2.132000000
H    -4.015000000    -0.134000000     3.033000000
O    -3.891000000     2.193000000    -0.520000000
H    -3.384000000     2.060000000     0.281000000
H    -3.260000000     2.062000000    -1.227000000
O    -5.845000000    -0.892000000     5.499000000
H    -5.359000000    -0.588000000     4.732000000
H    -6.367000000    -1.626000000     5.175000000
O    -3.197000000     2.190000000     5.021000000
H    -2.685000000     1.818000000     4.303000000
H    -3.217000000     1.500000000     5.684000000
O     0.952000000    -1.671000000    -4.548000000
H     0.913000000    -0.719000000    -4.454000000
H     0.948000000    -1.819000000    -5.494000000
O     2.805000000    -0.678000000     1.651000000
H     1.918000000    -0.742000000     1.297000000
H     3.290000000    -0.180000000     0.992000000
O    -1.888000000     0.969000000    -5.228000000
H    -0.983000000     1.058000000    -4.928000000
H    -2.013000000     0.026000000    -5.336000000
O     2.336000000    -6.737000000    -2.745000000
H     2.918000000    -6.458000000    -2.038000000
H     2.018000000    -5.921000000    -3.130000000
O    -0.328000000     1.820000000     5.516000000
H    -0.575000000     0.926000000     5.279000000
H     0.615000000     1.776000000     5.670000000
O     2.330000000     4.514000000     0.002000000
H     1.827000000     4.979000000    -0.667000000
H     3.013000000     4.056000000    -0.488000000
O    -0.135000000    -4.795000000     4.795000000
H     0.449000000    -4.050000000     4.941000000
H     0.447000000    -5.555000000     4.777000000
O     2.766000000     4.189000000     2.836000000
H     2.549000000     4.231000000     1.905000000
H     1.923000000     4.065000000     3.273000000
O     2.374000000    -4.958000000     2.974000000
H     2.276000000    -5.656000000     3.621000000
H     2.105000000    -5.359000000     2.147000000
O     4.139000000    -5.406000000    -0.862000000
H     4.602000000    -4.580000000    -0.723000000
H     3.705000000    -5.582000000    -0.027000000
O     3.721000000     0.143000000    -3.951000000
H     4.560000000    -0.218000000    -3.665000000
H     3.701000000    -0.016000000    -4.895000000
O    -3.663000000     5.016000000     5.384000000
H    -3.820000000     4.146000000     5.019000000
H    -2.711000000     5.078000000     5.457000000
O     0.999000000    -4.768000000    -4.320000000
H     0.948000000    -3.858000000    -4.028000000
H     0.151000000    -4.937000000    -4.731000000
O    -1.921000000     0.299000000    -2.336000000
H    -0.993000000     0.351000000    -2.105000000
H    -2.209000000    -0.541000000    -1.980000000
O     3.955000000    -2.710000000     3.063000000
H     3.278000000    -3.387000000     3.064000000
H     3.555000000    -1.972000000     2.604000000
O    -1.318000000     4.592000000    -3.443000000
H    -1.542000000     4.879000000    -2.558000000
H    -1.775000000     5.206000000    -4.018000000
O    -1.723000000    -1.681000000    -5.567000000
H    -1.070000000    -1.838000000    -4.884000000
H    -2.142000000    -2.532000000    -5.697000000
O    -5.676000000    -2.708000000     2.293000000
H    -5.445000000    -1.820000000     2.565000000
H    -5.142000000    -2.867000000     1.515000000
O     4.537000000     0.924000000    -0.215000000
H     4.176000000     1.331000000    -1.003000000
H     4.678000000     1.654000000     0.388000000
O     3.607000000    -2.551000000    -3.032000000
H     3.965000000    -2.607000000    -2.145000000
H     3.148000000    -1.712000000    -3.052000000
O     0.041000000     4.065000000     4.076000000
H    -0.189000000     3.275000000     4.565000000
H    -0.138000000     4.783000000     4.683000000
O     3.700000000     2.764000000    -1.839000000
H     4.083000000     3.517000000    -2.289000000
H     3.630000000     2.090000000    -2.515000000
O    -3.529000000    -1.750000000    -1.478000000
H    -3.099000000    -1.954000000    -0.647000000
H    -4.183000000    -2.442000000    -1.585000000
O    -3.273000000    -3.392000000     3.888000000
H    -2.581000000    -2.780000000     4.136000000
H    -3.773000000    -3.527000000     4.693000000
O     1.245000000     3.959000000    -4.220000000
H     0.378000000     4.144000000    -3.860000000
H     1.110000000     3.205000000    -4.794000000
O     1.043000000    -1.978000000     5.873000000
H     1.648000000    -1.288000000     5.600000000
H     0.196000000    -1.708000000     5.518000000
O     2.663000000    -0.366000000     4.511000000
H     2.780000000    -0.475000000     3.567000000
H     2.572000000     0.579000000     4.633000000
O    -4.514000000     3.779000000     2.648000000
H    -4.737000000     3.758000000     1.717000000
H    -3.659000000     3.351000000     2.699000000
O    -6.353000000     2.987000000     4.329000000
H    -5.551000000     3.213000000     3.858000000
H    -6.460000000     3.689000000     4.970000000
O    -1.390000000    -5.442000000     2.202000000
H    -2.162000000    -5.882000000     2.558000000
H    -0.781000000    -5.392000000     2.939000000
