158
-3066.97427
C    -0.496000000     1.426000000    -0.171000000
H    -0.722000000     2.475000000    -0.345000000
C     0.617000000     0.873000000    -0.907000000
H     1.238000000     1.411000000    -1.619000000
C     0.917000000    -0.474000000    -0.652000000
H     1.734000000    -1.034000000    -1.193000000
C     0.262000000    -1.191000000     0.318000000
H     0.486000000    -2.243000000     0.474000000
C    -0.807000000    -0.594000000     1.023000000
H    -1.369000000    -1.202000000     1.727000000
C    -1.236000000     0.670000000     0.782000000
C    -2.325000000     1.259000000     1.624000000
O    -2.730000000     2.336000000     1.313000000
O    -2.741000000     0.651000000     2.626000000
O     3.535000000    -3.532000000    -0.290000000
H     3.453000000    -2.622000000    -0.575000000
H     3.988000000    -3.479000000     0.552000000
O     5.919000000    -2.127000000    -2.067000000
H     6.686000000    -1.568000000    -1.943000000
H     5.247000000    -1.740000000    -1.506000000
O     0.245000000     4.409000000     2.125000000
H     0.970000000     3.947000000     1.703000000
H    -0.020000000     3.835000000     2.843000000
O     2.511000000     4.687000000    -0.662000000
H     2.549000000     5.644000000    -0.663000000
H     2.006000000     4.467000000    -1.445000000
O    -5.325000000     4.421000000     2.686000000
H    -4.514000000     4.164000000     3.125000000
H    -5.926000000     3.694000000     2.850000000
O     4.795000000    -4.956000000    -2.694000000
H     4.699000000    -4.468000000    -1.875000000
H     4.451000000    -5.827000000    -2.495000000
O    -2.200000000    -1.742000000     3.928000000
H    -2.895000000    -1.782000000     4.585000000
H    -2.311000000    -0.887000000     3.513000000
O    -1.540000000     5.599000000     0.189000000
H    -2.396000000     5.174000000     0.140000000
H    -1.040000000     5.060000000     0.803000000
O    -3.963000000     4.599000000     0.298000000
H    -3.445000000     3.818000000     0.495000000
H    -4.586000000     4.661000000     1.022000000
O     7.609000000     0.174000000    -1.561000000
H     6.760000000     0.613000000    -1.612000000
H     7.791000000     0.111000000    -0.623000000
O     4.508000000    -0.833000000     2.331000000
H     4.013000000    -1.204000000     3.061000000
H     5.406000000    -0.771000000     2.657000000
O    -4.913000000    -3.205000000     1.815000000
H    -4.557000000    -3.436000000     2.673000000
H    -4.180000000    -3.323000000     1.211000000
O    -2.239000000     1.865000000    -3.249000000
H    -2.779000000     1.685000000    -2.479000000
H    -1.803000000     2.693000000    -3.047000000
O     4.085000000    -4.602000000     2.459000000
H     4.061000000    -5.403000000     1.935000000
H     3.201000000    -4.242000000     2.385000000
O    -7.468000000     1.686000000     0.600000000
H    -7.387000000     2.589000000     0.292000000
H    -7.181000000     1.717000000     1.512000000
O    -0.929000000    -0.576000000    -3.805000000
H    -1.096000000    -0.076000000    -4.605000000
H    -1.056000000     0.055000000    -3.097000000
O    -5.263000000     0.397000000     2.371000000
H    -5.550000000     1.162000000     2.870000000
H    -4.307000000     0.435000000     2.403000000
O    -6.985000000    -1.577000000     3.524000000
H    -6.344000000    -0.990000000     3.121000000
H    -7.183000000    -2.219000000     2.842000000
O    -2.571000000     1.022000000     5.391000000
H    -1.615000000     1.066000000     5.407000000
H    -2.795000000     1.005000000     4.461000000
O    -0.992000000    -4.637000000     1.696000000
H    -1.690000000    -4.030000000     1.449000000
H    -1.393000000    -5.504000000     1.631000000
O     1.012000000    -1.787000000    -5.330000000
H     0.392000000    -1.291000000    -4.795000000
H     1.126000000    -1.256000000    -6.119000000
O     1.359000000     0.706000000     2.597000000
H     1.261000000     0.180000000     1.804000000
H     1.518000000     1.594000000     2.277000000
O     5.656000000    -3.065000000    -4.822000000
H     4.738000000    -3.330000000    -4.758000000
H     5.865000000    -2.717000000    -3.956000000
O    -0.234000000    -6.265000000    -2.473000000
H     0.145000000    -5.927000000    -1.661000000
H     0.043000000    -5.641000000    -3.144000000
O     0.089000000     0.712000000     4.966000000
H     0.395000000     0.473000000     4.091000000
H     0.809000000     1.219000000     5.341000000
O     2.761000000     2.721000000     1.253000000
H     2.621000000     3.261000000     0.475000000
H     3.693000000     2.505000000     1.230000000
O    -6.962000000     2.383000000     3.268000000
H    -7.868000000     2.379000000     3.574000000
H    -6.439000000     2.301000000     4.065000000
O     1.133000000    -5.113000000    -0.477000000
H     1.988000000    -4.686000000    -0.534000000
H     0.684000000    -4.654000000     0.233000000
O    -2.698000000    -1.025000000     7.041000000
H    -2.621000000    -0.380000000     6.338000000
H    -3.417000000    -1.594000000     6.767000000
O     2.941000000     1.823000000    -3.404000000
H     2.594000000     1.811000000    -4.296000000
H     2.260000000     2.254000000    -2.888000000
O     0.145000000    -4.448000000    -4.712000000
H     0.592000000    -3.673000000    -5.052000000
H    -0.639000000    -4.530000000    -5.254000000
O     0.482000000     7.302000000    -1.036000000
H    -0.137000000     6.582000000    -1.163000000
H    -0.045000000     8.093000000    -1.152000000
O    -4.162000000     1.664000000    -0.949000000
H    -3.814000000     1.956000000    -0.107000000
H    -4.530000000     0.799000000    -0.769000000
O     1.472000000    -3.748000000     2.143000000
H     1.308000000    -4.667000000     2.354000000
H     0.601000000    -3.369000000     2.029000000
O    -1.704000000     4.891000000    -2.501000000
H    -1.653000000     5.112000000    -1.571000000
H    -2.619000000     5.048000000    -2.734000000
O    -2.798000000    -2.774000000    -4.127000000
H    -2.051000000    -2.176000000    -4.112000000
H    -2.727000000    -3.226000000    -4.967000000
O     4.333000000    -0.744000000    -0.262000000
H     4.323000000     0.153000000    -0.594000000
H     4.413000000    -0.647000000     0.687000000
O     2.985000000    -3.724000000    -5.092000000
H     2.751000000    -4.610000000    -4.815000000
H     2.236000000    -3.187000000    -4.835000000
O    -0.914000000     3.609000000     4.856000000
H    -0.492000000     2.751000000     4.801000000
H    -0.406000000     4.083000000     5.515000000
O     5.279000000     1.518000000    -2.133000000
H     5.456000000     2.457000000    -2.191000000
H     4.493000000     1.389000000    -2.663000000
O    -5.052000000    -0.806000000    -0.243000000
H    -5.225000000    -0.622000000     0.680000000
H    -5.416000000    -1.680000000    -0.385000000
O    -3.727000000    -4.299000000     4.062000000
H    -2.949000000    -4.012000000     4.540000000
H    -3.987000000    -5.113000000     4.493000000
O     1.025000000     3.998000000    -3.025000000
H     0.103000000     4.254000000    -3.024000000
H     1.439000000     4.598000000    -3.645000000
O     0.581000000    -2.344000000     4.977000000
H     1.158000000    -1.587000000     4.874000000
H    -0.268000000    -2.044000000     4.652000000
O     2.909000000    -0.701000000     4.469000000
H     2.636000000    -0.081000000     3.793000000
H     3.493000000    -0.197000000     5.035000000
O    -3.298000000     3.385000000     3.755000000
H    -3.067000000     2.937000000     2.942000000
H    -2.473000000     3.444000000     4.238000000
O    -5.335000000     2.627000000     5.422000000
H    -4.508000000     3.087000000     5.278000000
H    -5.272000000     2.296000000     6.318000000
O    -2.700000000    -3.207000000     0.046000000
H    -2.567000000    -2.262000000    -0.024000000
H    -2.697000000    -3.517000000    -0.859000000
