158
-3036.58959
C    -0.032000000     1.528000000     0.115000000
H     0.083000000     2.579000000     0.363000000
C     1.087000000     0.748000000    -0.211000000
H     2.013000000     1.277000000    -0.421000000
C     0.970000000    -0.645000000    -0.211000000
H     1.778000000    -1.259000000    -0.580000000
C    -0.243000000    -1.282000000    -0.094000000
H    -0.339000000    -2.339000000    -0.328000000
C    -1.335000000    -0.529000000     0.185000000
H    -2.271000000    -1.012000000     0.451000000
C    -1.186000000     0.830000000     0.387000000
C    -2.396000000     1.573000000     0.880000000
O    -2.597000000     2.748000000     0.580000000
O    -3.173000000     0.999000000     1.583000000
O     3.291000000    -1.803000000    -4.842000000
H     3.385000000    -2.552000000    -4.254000000
H     2.695000000    -1.211000000    -4.384000000
O     5.322000000     0.136000000    -4.459000000
H     5.914000000     0.530000000    -5.100000000
H     4.964000000    -0.632000000    -4.905000000
O    -1.946000000     4.655000000     2.302000000
H    -2.250000000     4.020000000     1.654000000
H    -2.606000000     5.348000000     2.286000000
O     0.153000000     3.076000000    -4.441000000
H     0.252000000     3.202000000    -3.497000000
H    -0.080000000     3.942000000    -4.776000000
O    -4.132000000     6.318000000    -1.427000000
H    -3.288000000     6.361000000    -0.977000000
H    -3.919000000     6.000000000    -2.305000000
O     6.308000000     0.097000000    -1.832000000
H     5.487000000    -0.317000000    -1.567000000
H     6.136000000     0.429000000    -2.713000000
O    -3.963000000     1.570000000     4.082000000
H    -3.589000000     1.322000000     3.236000000
H    -4.224000000     2.484000000     3.970000000
O    -7.801000000     0.980000000    -0.326000000
H    -7.186000000     1.109000000    -1.048000000
H    -7.246000000     0.797000000     0.432000000
O    -0.923000000     4.131000000    -1.999000000
H    -1.447000000     3.868000000    -1.242000000
H    -0.772000000     5.068000000    -1.872000000
O     3.324000000    -6.495000000    -3.205000000
H     2.709000000    -5.851000000    -3.555000000
H     3.296000000    -6.363000000    -2.258000000
O    -2.333000000    -2.174000000     3.096000000
H    -3.160000000    -2.193000000     3.579000000
H    -2.226000000    -1.258000000     2.841000000
O     4.941000000    -4.164000000     1.375000000
H     4.038000000    -3.882000000     1.227000000
H     5.311000000    -3.492000000     1.948000000
O    -5.495000000     1.055000000    -1.754000000
H    -5.105000000     0.515000000    -1.067000000
H    -5.258000000     0.614000000    -2.570000000
O    -1.693000000     7.094000000     0.011000000
H    -0.832000000     6.849000000     0.350000000
H    -1.547000000     7.929000000    -0.434000000
O    -5.062000000    -0.403000000     0.447000000
H    -5.723000000    -0.446000000     1.137000000
H    -4.311000000     0.023000000     0.860000000
O    -2.495000000    -4.577000000    -3.038000000
H    -3.284000000    -4.070000000    -3.230000000
H    -2.010000000    -4.587000000    -3.863000000
O     5.593000000    -2.630000000     3.609000000
H     5.524000000    -2.503000000     4.555000000
H     5.934000000    -1.798000000     3.280000000
O    -3.052000000     2.729000000    -3.798000000
H    -3.520000000     2.731000000    -2.963000000
H    -2.280000000     3.274000000    -3.641000000
O    -5.222000000     3.207000000     1.208000000
H    -5.326000000     3.327000000     2.152000000
H    -4.363000000     2.795000000     1.113000000
O     0.912000000     6.223000000     1.351000000
H     0.831000000     5.287000000     1.532000000
H     1.062000000     6.621000000     2.209000000
O     2.894000000    -3.418000000    -2.514000000
H     3.324000000    -2.649000000    -2.140000000
H     2.962000000    -4.086000000    -1.832000000
O    -7.359000000     4.974000000     0.453000000
H    -6.762000000     4.254000000     0.657000000
H    -7.192000000     5.170000000    -0.469000000
O     3.038000000     3.196000000     1.894000000
H     3.039000000     3.437000000     0.967000000
H     2.116000000     3.232000000     2.149000000
O    -3.351000000    -2.155000000    -4.627000000
H    -2.841000000    -1.735000000    -3.934000000
H    -2.698000000    -2.594000000    -5.172000000
O     3.217000000     3.417000000    -0.954000000
H     3.177000000     2.816000000    -1.697000000
H     3.278000000     4.285000000    -1.351000000
O     2.399000000    -3.328000000     1.218000000
H     1.578000000    -2.938000000     0.916000000
H     2.131000000    -4.118000000     1.686000000
O    -7.140000000     0.070000000     2.228000000
H    -8.041000000     0.078000000     1.906000000
H    -7.189000000    -0.390000000     3.066000000
O     5.751000000     2.994000000     0.124000000
H     4.877000000     3.032000000    -0.265000000
H     5.753000000     2.183000000     0.632000000
O     3.348000000    -5.612000000    -0.584000000
H     2.543000000    -5.671000000    -0.070000000
H     4.010000000    -5.318000000     0.042000000
O    -0.356000000     1.039000000     4.420000000
H     0.276000000     1.577000000     3.942000000
H    -1.208000000     1.311000000     4.078000000
O     1.342000000    -0.510000000    -3.306000000
H     0.546000000    -0.024000000    -3.523000000
H     1.226000000    -0.762000000    -2.390000000
O    -3.339000000    -3.759000000     0.846000000
H    -2.728000000    -3.508000000     1.539000000
H    -3.500000000    -4.691000000     0.994000000
O     6.330000000    -0.695000000     1.860000000
H     5.393000000    -0.852000000     1.742000000
H     6.374000000     0.108000000     2.379000000
O    -1.161000000     0.336000000    -3.144000000
H    -1.904000000     0.726000000    -3.604000000
H    -0.881000000     1.011000000    -2.525000000
O     6.983000000    -3.303000000    -0.861000000
H     7.724000000    -3.848000000    -1.124000000
H     6.486000000    -3.850000000    -0.253000000
O     4.567000000    -1.829000000    -0.928000000
H     4.310000000    -1.455000000    -0.085000000
H     5.489000000    -2.058000000    -0.817000000
O     3.385000000     0.945000000     3.289000000
H     3.537000000     1.761000000     2.811000000
H     3.777000000     1.095000000     4.149000000
O    -7.406000000     2.290000000     3.914000000
H    -8.014000000     1.846000000     4.505000000
H    -7.008000000     1.585000000     3.404000000
O     3.231000000     1.645000000    -2.879000000
H     2.418000000     1.182000000    -3.083000000
H     3.875000000     1.278000000    -3.484000000
O     1.230000000    -4.832000000    -4.571000000
H     1.563000000    -4.685000000    -5.456000000
H     1.376000000    -4.001000000    -4.119000000
O     0.499000000     3.277000000     2.830000000
H    -0.372000000     3.675000000     2.807000000
H     0.886000000     3.595000000     3.645000000
O     1.434000000    -6.023000000     1.235000000
H     1.488000000    -6.820000000     1.764000000
H     0.778000000    -6.223000000     0.567000000
O    -4.526000000    -1.068000000     4.375000000
H    -4.489000000    -0.112000000     4.336000000
H    -4.505000000    -1.270000000     5.310000000
O     1.510000000    -1.080000000     4.461000000
H     2.307000000    -0.798000000     4.013000000
H     1.007000000    -0.275000000     4.586000000
O     3.673000000    -0.838000000     1.268000000
H     2.999000000    -1.472000000     1.515000000
H     3.487000000    -0.069000000     1.808000000
O    -3.973000000     3.393000000    -1.454000000
H    -4.796000000     2.929000000    -1.300000000
H    -3.560000000     3.443000000    -0.592000000
O    -5.566000000    -3.246000000    -0.519000000
H    -4.699000000    -3.522000000    -0.221000000
H    -5.651000000    -2.346000000    -0.205000000
O    -2.930000000    -6.208000000     1.396000000
H    -3.075000000    -7.110000000     1.681000000
H    -1.978000000    -6.122000000     1.348000000
