158
-3011.00888
C     1.090000000     0.920000000    -0.477000000
H     1.999000000     1.483000000    -0.673000000
C     1.057000000     0.024000000     0.627000000
H     1.959000000    -0.115000000     1.218000000
C     0.024000000    -0.774000000     0.997000000
H     0.041000000    -1.514000000     1.760000000
C    -1.167000000    -0.514000000     0.398000000
H    -2.115000000    -0.932000000     0.725000000
C    -1.227000000     0.395000000    -0.662000000
H    -2.190000000     0.489000000    -1.158000000
C    -0.102000000     1.018000000    -1.202000000
C    -0.099000000     1.858000000    -2.469000000
O     0.881000000     2.375000000    -2.961000000
O    -1.106000000     1.788000000    -3.159000000
O    -4.835000000    -0.324000000    -0.069000000
H    -4.781000000     0.600000000    -0.311000000
H    -4.313000000    -0.777000000    -0.731000000
O     3.903000000    -0.599000000     3.994000000
H     3.704000000    -1.458000000     3.623000000
H     4.439000000    -0.168000000     3.328000000
O    -6.513000000     2.284000000    -3.895000000
H    -5.585000000     2.113000000    -3.732000000
H    -6.968000000     1.551000000    -3.481000000
O    -2.493000000     0.276000000     4.937000000
H    -1.821000000     0.929000000     4.741000000
H    -2.868000000     0.056000000     4.084000000
O    -0.828000000    -1.265000000    -6.751000000
H    -0.191000000    -1.920000000    -6.468000000
H    -1.097000000    -0.827000000    -5.943000000
O     2.976000000     3.818000000    -2.098000000
H     2.667000000     4.571000000    -1.593000000
H     2.227000000     3.570000000    -2.640000000
O     1.207000000    -0.125000000     4.190000000
H     0.727000000    -0.868000000     4.556000000
H     2.053000000    -0.491000000     3.932000000
O    -2.354000000     5.104000000     0.157000000
H    -2.017000000     4.930000000    -0.722000000
H    -2.585000000     4.242000000     0.501000000
O     1.820000000    -1.655000000    -2.834000000
H     2.326000000    -0.971000000    -3.273000000
H     2.072000000    -1.585000000    -1.913000000
O    -0.683000000     1.919000000     3.842000000
H    -0.238000000     1.084000000     3.695000000
H    -0.121000000     2.568000000     3.420000000
O     2.481000000    -4.848000000     3.826000000
H     2.491000000    -5.160000000     4.731000000
H     2.724000000    -5.614000000     3.306000000
O    -1.105000000    -4.444000000     6.657000000
H    -1.253000000    -3.521000000     6.861000000
H    -1.349000000    -4.528000000     5.735000000
O    -2.662000000    -4.729000000    -1.134000000
H    -1.779000000    -4.698000000    -0.765000000
H    -2.723000000    -5.595000000    -1.537000000
O    -1.457000000     4.464000000    -2.780000000
H    -1.115000000     3.582000000    -2.929000000
H    -0.693000000     5.034000000    -2.866000000
O    -1.100000000    -0.631000000    -3.895000000
H    -0.349000000    -1.015000000    -3.442000000
H    -1.141000000     0.268000000    -3.571000000
O     2.317000000     4.412000000    -7.033000000
H     2.565000000     3.786000000    -7.713000000
H     1.980000000     3.870000000    -6.319000000
O     2.872000000     0.816000000    -3.566000000
H     3.625000000     1.365000000    -3.344000000
H     2.123000000     1.411000000    -3.529000000
O     3.632000000     2.659000000     1.910000000
H     4.380000000     2.638000000     2.507000000
H     4.004000000     2.450000000     1.053000000
O     5.168000000     2.299000000    -2.559000000
H     4.563000000     3.007000000    -2.339000000
H     5.786000000     2.695000000    -3.174000000
O     0.243000000     3.109000000    -5.587000000
H    -0.102000000     2.255000000    -5.847000000
H     0.329000000     3.053000000    -4.635000000
O    -5.317000000    -4.874000000    -0.363000000
H    -5.942000000    -4.158000000    -0.250000000
H    -4.607000000    -4.492000000    -0.880000000
O     5.929000000     0.632000000     2.426000000
H     6.598000000     1.290000000     2.235000000
H     5.480000000     0.498000000     1.591000000
O     2.112000000     2.266000000     5.102000000
H     2.151000000     1.572000000     4.444000000
H     2.529000000     3.018000000     4.681000000
O     2.725000000    -4.731000000    -1.534000000
H     3.414000000    -4.215000000    -1.115000000
H     2.921000000    -4.677000000    -2.470000000
O    -3.704000000    -3.519000000     5.164000000
H    -3.081000000    -4.150000000     4.803000000
H    -3.196000000    -3.018000000     5.802000000
O    -3.884000000     2.089000000    -3.622000000
H    -2.972000000     2.151000000    -3.907000000
H    -3.847000000     2.218000000    -2.674000000
O     0.723000000    -7.438000000    -0.160000000
H     1.626000000    -7.123000000    -0.195000000
H     0.398000000    -7.139000000     0.689000000
O     3.795000000     0.452000000     6.436000000
H     4.032000000     0.214000000     5.540000000
H     2.842000000     0.367000000     6.463000000
O     2.589000000     6.014000000    -0.767000000
H     1.713000000     6.081000000    -0.387000000
H     2.874000000     6.922000000    -0.873000000
O    -3.787000000     6.271000000    -2.445000000
H    -4.078000000     6.918000000    -3.088000000
H    -3.236000000     5.668000000    -2.945000000
O    -2.029000000    -5.413000000     3.929000000
H    -2.802000000    -5.714000000     3.450000000
H    -1.289000000    -5.709000000     3.398000000
O    -5.410000000    -2.810000000     2.520000000
H    -4.751000000    -2.578000000     1.865000000
H    -4.924000000    -3.294000000     3.188000000
O    -1.957000000    -1.734000000     6.689000000
H    -1.520000000    -1.296000000     7.421000000
H    -2.081000000    -1.044000000     6.038000000
O    -4.232000000    -0.219000000    -5.562000000
H    -3.913000000    -0.762000000    -4.842000000
H    -4.331000000     0.653000000    -5.180000000
O    -0.074000000    -4.065000000    -0.652000000
H     0.755000000    -4.480000000    -0.891000000
H     0.178000000    -3.208000000    -0.309000000
O    -4.086000000    -2.654000000    -1.930000000
H    -3.403000000    -3.277000000    -1.682000000
H    -4.189000000    -2.774000000    -2.874000000
O     0.843000000    -2.654000000     4.751000000
H     1.128000000    -3.321000000     4.127000000
H     0.873000000    -3.093000000     5.601000000
O    -2.612000000     2.689000000     1.290000000
H    -1.955000000     2.003000000     1.411000000
H    -2.664000000     3.124000000     2.141000000
O    -2.498000000     4.679000000    -6.041000000
H    -1.612000000     4.397000000    -5.812000000
H    -2.369000000     5.458000000    -6.582000000
O     3.759000000    -1.695000000    -0.191000000
H     4.498000000    -2.089000000    -0.655000000
H     3.752000000    -2.132000000     0.661000000
O    -4.113000000     2.083000000    -0.732000000
H    -3.526000000     2.118000000     0.023000000
H    -4.730000000     2.802000000    -0.590000000
O     5.011000000     0.964000000    -0.206000000
H     4.414000000     0.221000000    -0.294000000
H     5.242000000     1.194000000    -1.106000000
O     3.981000000    -2.919000000     2.567000000
H     3.395000000    -3.557000000     2.973000000
H     4.772000000    -2.944000000     3.105000000
O    -0.038000000    -6.785000000     2.539000000
H    -0.317000000    -7.693000000     2.659000000
H     0.904000000    -6.800000000     2.708000000
O     0.904000000     3.388000000     2.096000000
H     1.686000000     2.894000000     1.849000000
H     0.738000000     3.964000000     1.350000000
O     4.729000000     4.952000000     0.330000000
H     3.919000000     5.194000000    -0.120000000
H     4.561000000     5.154000000     1.251000000
O    -4.296000000     0.029000000     2.647000000
H    -4.538000000    -0.173000000     1.743000000
H    -4.643000000     0.908000000     2.798000000
O     4.506000000     5.520000000    -4.029000000
H     3.740000000     5.129000000    -3.609000000
H     4.604000000     6.371000000    -3.602000000
