158
-3004.19998
C     1.199000000     0.281000000    -0.792000000
H     2.194000000     0.363000000    -1.220000000
C     1.142000000    -0.516000000     0.341000000
H     2.025000000    -1.058000000     0.672000000
C    -0.071000000    -0.753000000     0.968000000
H    -0.104000000    -1.439000000     1.785000000
C    -1.257000000    -0.059000000     0.571000000
H    -2.200000000    -0.211000000     1.088000000
C    -1.151000000     0.896000000    -0.454000000
H    -2.004000000     1.489000000    -0.774000000
C     0.066000000     1.027000000    -1.225000000
C     0.051000000     1.869000000    -2.426000000
O     1.073000000     1.955000000    -3.090000000
O    -0.834000000     2.617000000    -2.654000000
O    -4.569000000    -2.258000000    -1.883000000
H    -4.742000000    -1.552000000    -1.261000000
H    -3.830000000    -2.735000000    -1.505000000
O    -5.975000000    -2.245000000     2.092000000
H    -5.610000000    -1.826000000     1.313000000
H    -6.041000000    -3.171000000     1.857000000
O     3.657000000     2.457000000    -2.873000000
H     2.735000000     2.235000000    -2.998000000
H     4.041000000     1.676000000    -2.475000000
O    -1.187000000     0.436000000     7.133000000
H    -0.597000000     1.190000000     7.169000000
H    -1.462000000     0.304000000     8.040000000
O     1.002000000    -0.361000000     4.155000000
H     1.252000000    -1.061000000     3.552000000
H     1.497000000    -0.544000000     4.953000000
O    -1.512000000     4.527000000    -6.691000000
H    -0.813000000     4.329000000    -6.069000000
H    -1.679000000     5.462000000    -6.575000000
O    -1.225000000     4.526000000     0.996000000
H    -1.693000000     4.112000000     1.722000000
H    -0.324000000     4.214000000     1.084000000
O     0.037000000     4.517000000    -4.319000000
H    -0.317000000     3.873000000    -3.705000000
H     0.986000000     4.422000000    -4.245000000
O    -1.652000000     0.704000000     4.477000000
H    -0.837000000     0.274000000     4.216000000
H    -1.715000000     0.545000000     5.419000000
O     2.416000000    -3.532000000     0.284000000
H     1.796000000    -3.127000000    -0.322000000
H     2.739000000    -4.303000000    -0.183000000
O    -5.375000000     0.326000000     2.904000000
H    -5.552000000    -0.557000000     2.581000000
H    -5.330000000     0.229000000     3.855000000
O     1.048000000    -5.577000000     2.004000000
H     1.327000000    -4.688000000     1.785000000
H     1.765000000    -6.135000000     1.703000000
O    -1.029000000    -5.381000000    -1.607000000
H    -1.172000000    -5.314000000    -2.551000000
H    -0.930000000    -6.319000000    -1.446000000
O     1.711000000     1.046000000    -5.453000000
H     1.355000000     1.485000000    -4.681000000
H     1.296000000     0.184000000    -5.452000000
O    -1.544000000    -0.999000000    -5.312000000
H    -2.218000000    -1.497000000    -5.774000000
H    -0.721000000    -1.409000000    -5.575000000
O    -4.313000000     2.990000000     0.628000000
H    -3.736000000     2.571000000     1.267000000
H    -3.723000000     3.314000000    -0.052000000
O    -3.688000000    -4.710000000     3.120000000
H    -3.385000000    -3.851000000     3.414000000
H    -3.501000000    -5.295000000     3.855000000
O     2.572000000    -3.303000000    -3.145000000
H     2.668000000    -4.150000000    -2.709000000
H     1.782000000    -2.924000000    -2.760000000
O     4.459000000     2.915000000     2.035000000
H     4.511000000     2.187000000     2.655000000
H     5.126000000     2.718000000     1.378000000
O     4.301000000     0.477000000    -5.563000000
H     3.397000000     0.709000000    -5.350000000
H     4.327000000    -0.477000000    -5.488000000
O     6.041000000     2.614000000    -4.251000000
H     6.114000000     1.790000000    -4.731000000
H     5.139000000     2.626000000    -3.930000000
O     2.732000000    -2.653000000     3.019000000
H     2.464000000    -2.946000000     2.148000000
H     3.686000000    -2.725000000     3.013000000
O    -3.852000000    -6.049000000    -0.021000000
H    -3.861000000    -6.109000000    -0.977000000
H    -2.981000000    -5.713000000     0.189000000
O     1.464000000     2.124000000    -8.204000000
H     1.854000000     2.998000000    -8.236000000
H     1.546000000     1.859000000    -7.288000000
O     1.002000000     2.511000000     4.122000000
H     1.022000000     2.662000000     3.177000000
H     0.807000000     1.578000000     4.211000000
O    -0.985000000     7.189000000    -0.560000000
H    -0.674000000     7.707000000     0.183000000
H    -1.103000000     6.308000000    -0.205000000
O     3.786000000     4.995000000    -2.155000000
H     4.113000000     4.100000000    -2.062000000
H     2.876000000     4.949000000    -1.862000000
O    -6.877000000     3.716000000     0.269000000
H    -5.937000000     3.545000000     0.322000000
H    -6.939000000     4.626000000    -0.021000000
O    -2.793000000     1.398000000    -4.492000000
H    -2.424000000     0.576000000    -4.815000000
H    -2.079000000     1.804000000    -3.999000000
O     2.226000000    -6.439000000     4.511000000
H     1.634000000    -6.102000000     3.840000000
H     1.792000000    -7.227000000     4.839000000
O     1.200000000     4.261000000    -1.033000000
H     0.892000000     3.769000000    -1.794000000
H     0.975000000     3.710000000    -0.284000000
O    -2.622000000    -2.317000000     4.088000000
H    -2.796000000    -1.382000000     4.197000000
H    -1.671000000    -2.394000000     4.157000000
O     0.047000000    -2.116000000     7.300000000
H    -0.277000000    -1.216000000     7.265000000
H    -0.083000000    -2.453000000     6.413000000
O    -3.526000000     1.191000000    -7.045000000
H    -3.981000000     2.016000000    -7.212000000
H    -3.439000000     1.153000000    -6.092000000
O     0.209000000    -2.842000000    -1.425000000
H    -0.368000000    -3.605000000    -1.388000000
H    -0.383000000    -2.091000000    -1.370000000
O    -2.711000000    -2.855000000    -0.010000000
H    -2.127000000    -2.157000000     0.284000000
H    -2.303000000    -3.660000000     0.310000000
O     0.029000000    -3.087000000     4.757000000
H     0.864000000    -2.995000000     4.298000000
H    -0.015000000    -4.013000000     4.992000000
O    -4.046000000     3.910000000    -3.879000000
H    -3.669000000     4.122000000    -3.025000000
H    -3.695000000     3.044000000    -4.087000000
O    -2.420000000     2.673000000     2.562000000
H    -3.217000000     3.083000000     2.898000000
H    -1.933000000     2.417000000     3.345000000
O     4.799000000     0.259000000    -1.494000000
H     5.049000000    -0.314000000    -2.219000000
H     4.773000000    -0.318000000    -0.731000000
O     4.503000000    -2.051000000    -4.682000000
H     5.249000000    -1.551000000    -4.350000000
H     3.923000000    -2.144000000    -3.927000000
O    -2.722000000     4.438000000    -1.467000000
H    -2.423000000     4.984000000    -0.740000000
H    -1.961000000     3.903000000    -1.694000000
O     6.243000000     1.812000000     0.331000000
H     5.935000000     1.308000000    -0.422000000
H     6.901000000     2.406000000    -0.030000000
O     4.640000000    -1.665000000     0.159000000
H     3.879000000    -2.215000000     0.343000000
H     5.360000000    -2.285000000     0.043000000
O    -1.478000000    -4.866000000     1.417000000
H    -0.805000000    -5.508000000     1.643000000
H    -2.154000000    -4.983000000     2.085000000
O     1.163000000     2.836000000     1.196000000
H     0.788000000     2.040000000     0.817000000
H     2.083000000     2.618000000     1.347000000
O     1.181000000     7.021000000    -2.560000000
H     0.852000000     6.250000000    -3.023000000
H     0.972000000     6.855000000    -1.640000000
O    -5.376000000    -0.036000000    -0.498000000
H    -5.544000000     0.761000000     0.005000000
H    -6.033000000    -0.022000000    -1.194000000
