158
-2989.92508
C    -0.808000000     1.099000000     0.432000000
H    -1.394000000     1.846000000     0.961000000
C     0.117000000     0.376000000     1.209000000
H     0.203000000     0.649000000     2.258000000
C     0.896000000    -0.613000000     0.638000000
H     1.633000000    -1.072000000     1.281000000
C     0.652000000    -0.925000000    -0.693000000
H     1.176000000    -1.784000000    -1.105000000
C    -0.347000000    -0.263000000    -1.421000000
H    -0.654000000    -0.675000000    -2.379000000
C    -1.087000000     0.859000000    -0.904000000
C    -2.165000000     1.504000000    -1.716000000
O    -2.790000000     2.449000000    -1.202000000
O    -2.402000000     1.338000000    -2.898000000
O    -1.383000000    -1.414000000     3.126000000
H    -0.911000000    -1.158000000     2.333000000
H    -1.019000000    -2.269000000     3.355000000
O    -1.035000000    -0.841000000    -7.343000000
H    -1.673000000    -1.514000000    -7.581000000
H    -0.866000000    -0.990000000    -6.413000000
O    -1.432000000     6.269000000    -3.235000000
H    -1.848000000     5.816000000    -2.501000000
H    -1.153000000     5.567000000    -3.823000000
O    -0.901000000     1.036000000     6.749000000
H    -0.457000000     0.219000000     6.522000000
H    -0.977000000     1.505000000     5.918000000
O    -1.882000000     6.233000000     1.992000000
H    -2.407000000     6.534000000     2.734000000
H    -1.171000000     5.731000000     2.390000000
O     1.383000000     3.727000000     0.431000000
H     0.724000000     3.894000000     1.105000000
H     1.864000000     4.551000000     0.356000000
O     3.253000000    -2.665000000    -4.526000000
H     3.238000000    -2.026000000    -3.813000000
H     3.800000000    -3.378000000    -4.197000000
O     1.084000000    -1.339000000     6.486000000
H     1.894000000    -1.169000000     6.967000000
H     0.925000000    -2.275000000     6.607000000
O    -5.899000000     0.462000000     1.076000000
H    -5.834000000     1.021000000     0.301000000
H    -6.769000000     0.647000000     1.431000000
O    -4.658000000    -2.689000000    -3.780000000
H    -4.670000000    -1.821000000    -3.378000000
H    -4.326000000    -3.267000000    -3.093000000
O    -2.043000000     5.036000000    -0.900000000
H    -2.269000000     4.140000000    -1.151000000
H    -2.624000000     5.233000000    -0.166000000
O    -0.140000000     1.273000000    -4.491000000
H     0.213000000     0.384000000    -4.516000000
H    -0.798000000     1.250000000    -3.797000000
O    -3.803000000    -2.125000000     1.874000000
H    -2.861000000    -2.109000000     2.044000000
H    -4.102000000    -1.244000000     2.099000000
O    -1.936000000     2.515000000     4.784000000
H    -2.741000000     2.085000000     4.495000000
H    -2.212000000     3.081000000     5.505000000
O    -4.369000000     0.274000000    -4.205000000
H    -4.095000000     0.187000000    -5.118000000
H    -3.574000000     0.536000000    -3.740000000
O     3.219000000     2.617000000     3.156000000
H     2.882000000     1.809000000     3.543000000
H     2.570000000     3.282000000     3.388000000
O     3.883000000    -1.980000000     4.635000000
H     3.738000000    -1.962000000     5.581000000
H     4.755000000    -1.603000000     4.519000000
O    -7.034000000    -0.087000000    -3.146000000
H    -7.003000000    -0.672000000    -2.389000000
H    -6.262000000    -0.322000000    -3.661000000
O     0.239000000    -3.933000000    -3.242000000
H     0.602000000    -4.761000000    -3.555000000
H     0.931000000    -3.560000000    -2.695000000
O     6.804000000     1.947000000     0.272000000
H     6.609000000     1.063000000     0.584000000
H     6.058000000     2.473000000     0.560000000
O     2.629000000     1.226000000    -0.948000000
H     1.807000000     0.740000000    -0.889000000
H     2.546000000     1.917000000    -0.291000000
O    -4.159000000    -4.205000000    -1.672000000
H    -4.613000000    -4.309000000    -0.836000000
H    -3.337000000    -3.771000000    -1.446000000
O     0.437000000     4.075000000    -2.456000000
H     0.706000000     3.184000000    -2.233000000
H    -0.215000000     4.301000000    -1.793000000
O     1.950000000    -5.963000000     0.157000000
H     1.034000000    -5.769000000    -0.043000000
H     1.911000000    -6.660000000     0.811000000
O     0.307000000    -1.568000000    -4.865000000
H     1.072000000    -2.094000000    -5.098000000
H    -0.393000000    -2.208000000    -4.734000000
O    -4.824000000     5.949000000    -0.662000000
H    -4.931000000     6.746000000    -0.141000000
H    -4.221000000     6.201000000    -1.362000000
O    -0.286000000     4.074000000     2.838000000
H     0.460000000     4.075000000     3.438000000
H    -0.882000000     3.416000000     3.197000000
O     1.522000000     1.873000000    -6.655000000
H     1.156000000     1.593000000    -5.816000000
H     1.208000000     2.770000000    -6.767000000
O    -5.337000000     1.753000000    -1.229000000
H    -4.413000000     1.968000000    -1.108000000
H    -5.376000000     1.344000000    -2.094000000
O     1.218000000    -4.044000000     5.792000000
H     1.317000000    -4.591000000     6.571000000
H     2.110000000    -3.924000000     5.468000000
O     3.964000000    -0.575000000    -2.975000000
H     3.370000000    -0.110000000    -2.387000000
H     4.832000000    -0.235000000    -2.758000000
O    -1.073000000    -5.502000000     0.194000000
H    -1.496000000    -6.096000000     0.815000000
H    -1.513000000    -5.673000000    -0.638000000
O    -6.281000000     2.553000000    -4.123000000
H    -5.743000000     1.824000000    -3.814000000
H    -5.657000000     3.260000000    -4.283000000
O     3.968000000    -2.783000000     2.141000000
H     3.896000000    -2.674000000     3.089000000
H     4.771000000    -3.290000000     2.018000000
O     2.822000000    -3.683000000    -1.669000000
H     3.559000000    -3.218000000    -1.272000000
H     2.750000000    -4.493000000    -1.163000000
O    -3.668000000    -0.974000000     4.733000000
H    -2.942000000    -1.103000000     4.123000000
H    -4.076000000    -0.155000000     4.450000000
O    -4.319000000     3.821000000     1.501000000
H    -4.952000000     4.505000000     1.281000000
H    -4.006000000     3.503000000     0.654000000
O    -2.585000000     3.660000000    -4.578000000
H    -3.089000000     3.213000000    -3.897000000
H    -1.862000000     3.063000000    -4.770000000
O     6.021000000    -4.451000000     1.206000000
H     6.306000000    -5.360000000     1.108000000
H     6.441000000    -3.989000000     0.481000000
O     0.006000000     4.059000000    -5.758000000
H    -0.052000000     5.008000000    -5.870000000
H     0.022000000     3.931000000    -4.810000000
O     0.481000000    -3.251000000     3.168000000
H     0.720000000    -3.797000000     3.917000000
H     1.213000000    -3.347000000     2.558000000
O    -4.444000000     1.874000000     3.703000000
H    -4.396000000     2.607000000     3.089000000
H    -5.380000000     1.686000000     3.778000000
O     2.364000000     0.366000000     4.574000000
H     1.579000000     0.100000000     5.053000000
H     2.575000000    -0.388000000     4.023000000
O     5.820000000    -2.245000000    -1.227000000
H     5.608000000    -2.191000000    -2.159000000
H     6.618000000    -2.771000000    -1.193000000
O    -1.919000000    -3.085000000    -0.923000000
H    -1.357000000    -2.320000000    -1.044000000
H    -1.376000000    -3.706000000    -0.437000000
O     4.209000000     1.970000000     5.886000000
H     3.555000000     2.559000000     6.263000000
H     3.697000000     1.315000000     5.412000000
O     5.747000000    -0.621000000     0.789000000
H     5.266000000    -1.142000000     1.431000000
H     5.564000000    -1.044000000    -0.049000000
O     4.515000000     3.330000000     1.002000000
H     4.004000000     2.820000000     1.630000000
H     3.889000000     3.956000000     0.637000000
