158
-3027.23468
C     1.178000000    -0.851000000    -0.272000000
H     2.102000000    -1.417000000    -0.369000000
C     0.358000000    -0.871000000     0.831000000
H     0.728000000    -1.508000000     1.631000000
C    -0.760000000    -0.058000000     1.017000000
H    -1.332000000     0.054000000     1.916000000
C    -1.174000000     0.679000000    -0.094000000
H    -2.037000000     1.337000000    -0.024000000
C    -0.395000000     0.654000000    -1.260000000
H    -0.629000000     1.310000000    -2.095000000
C     0.792000000    -0.069000000    -1.339000000
C     1.812000000     0.259000000    -2.412000000
O     1.476000000     0.980000000    -3.334000000
O     2.903000000    -0.271000000    -2.415000000
O    -1.513000000     1.644000000    -5.210000000
H    -1.856000000     1.952000000    -6.048000000
H    -0.656000000     1.275000000    -5.423000000
O     3.615000000     1.537000000     0.338000000
H     3.551000000     2.323000000    -0.205000000
H     3.908000000     0.853000000    -0.264000000
O    -2.415000000     3.699000000     4.697000000
H    -2.866000000     4.519000000     4.496000000
H    -2.109000000     3.379000000     3.848000000
O     1.502000000    -5.748000000    -0.552000000
H     1.491000000    -5.481000000     0.367000000
H     2.221000000    -5.248000000    -0.938000000
O    -4.041000000     6.073000000    -0.078000000
H    -3.784000000     5.166000000    -0.244000000
H    -4.946000000     6.014000000     0.226000000
O     5.734000000    -0.532000000    -6.242000000
H     6.564000000    -0.996000000    -6.131000000
H     5.064000000    -1.203000000    -6.113000000
O    -3.951000000     1.465000000     2.229000000
H    -4.042000000     0.940000000     1.434000000
H    -4.647000000     2.118000000     2.166000000
O     1.175000000     3.774000000    -3.403000000
H     1.069000000     2.867000000    -3.692000000
H     2.115000000     3.868000000    -3.252000000
O     2.915000000     3.243000000     3.763000000
H     2.112000000     3.082000000     3.268000000
H     3.427000000     3.829000000     3.205000000
O     4.580000000     3.623000000    -6.075000000
H     4.411000000     3.919000000    -5.181000000
H     3.940000000     2.926000000    -6.222000000
O    -6.008000000    -2.210000000     0.469000000
H    -6.218000000    -1.857000000     1.334000000
H    -6.575000000    -2.976000000     0.379000000
O     0.926000000     3.146000000     1.650000000
H     1.033000000     2.308000000     1.201000000
H    -0.006000000     3.349000000     1.560000000
O     0.413000000    -3.035000000     7.038000000
H     0.022000000    -2.693000000     6.234000000
H     1.346000000    -3.112000000     6.837000000
O    -3.015000000     2.612000000    -3.054000000
H    -3.625000000     1.874000000    -3.038000000
H    -2.597000000     2.559000000    -3.913000000
O     2.065000000    -0.467000000    -6.869000000
H     2.325000000    -0.989000000    -6.109000000
H     1.848000000    -1.114000000    -7.540000000
O     0.952000000     4.839000000    -6.648000000
H     1.280000000     4.507000000    -5.812000000
H     1.559000000     4.486000000    -7.299000000
O     5.017000000     1.304000000    -2.125000000
H     4.812000000     2.002000000    -2.747000000
H     4.297000000     0.681000000    -2.218000000
O    -4.404000000     0.348000000    -2.731000000
H    -5.209000000     0.082000000    -3.176000000
H    -3.759000000    -0.311000000    -2.987000000
O     0.188000000    -1.340000000    -4.252000000
H    -0.540000000    -1.329000000    -3.631000000
H     0.507000000    -0.437000000    -4.263000000
O     2.173000000    -4.559000000     1.781000000
H     2.265000000    -4.631000000     2.731000000
H     2.970000000    -4.112000000     1.496000000
O    -1.212000000     5.735000000    -3.151000000
H    -1.864000000     5.060000000    -2.964000000
H    -0.389000000     5.254000000    -3.245000000
O     3.099000000     0.157000000     2.841000000
H     3.365000000    -0.645000000     2.393000000
H     3.157000000     0.837000000     2.170000000
O    -0.835000000    -5.135000000     3.955000000
H    -0.045000000    -4.930000000     3.454000000
H    -1.524000000    -5.215000000     3.295000000
O     3.794000000    -4.555000000    -1.320000000
H     3.851000000    -3.625000000    -1.102000000
H     4.385000000    -4.984000000    -0.701000000
O    -2.013000000     0.000000000     4.895000000
H    -2.251000000     0.337000000     4.032000000
H    -1.103000000    -0.281000000     4.800000000
O     6.579000000     1.596000000    -4.949000000
H     6.089000000     0.784000000    -5.080000000
H     6.077000000     2.258000000    -5.423000000
O    -1.976000000    -1.884000000    -1.801000000
H    -1.327000000    -1.342000000    -1.352000000
H    -2.416000000    -2.363000000    -1.098000000
O    -4.036000000     3.290000000    -0.466000000
H    -3.760000000     2.716000000    -1.181000000
H    -4.990000000     3.324000000    -0.541000000
O    -2.931000000    -3.159000000    -3.786000000
H    -2.798000000    -2.544000000    -3.065000000
H    -2.203000000    -3.776000000    -3.712000000
O    -5.247000000     0.637000000     4.661000000
H    -4.887000000     0.664000000     5.548000000
H    -4.540000000     0.965000000     4.106000000
O     3.468000000    -1.630000000    -4.519000000
H     4.330000000    -1.950000000    -4.253000000
H     3.149000000    -1.142000000    -3.759000000
O     4.930000000    -1.927000000    -1.466000000
H     4.289000000    -1.323000000    -1.841000000
H     5.560000000    -2.076000000    -2.172000000
O     7.052000000     1.901000000    -0.556000000
H     6.353000000     1.389000000    -0.962000000
H     7.391000000     2.448000000    -1.265000000
O    -2.446000000    -3.824000000     5.862000000
H    -2.967000000    -3.617000000     5.085000000
H    -1.589000000    -4.072000000     5.516000000
O     4.770000000    -1.768000000     1.364000000
H     5.196000000    -2.538000000     0.988000000
H     5.036000000    -1.045000000     0.796000000
O     3.763000000     4.206000000    -2.899000000
H     4.611000000     4.642000000    -2.988000000
H     3.689000000     4.015000000    -1.964000000
O    -4.692000000     0.277000000    -0.074000000
H    -4.558000000     0.216000000    -1.019000000
H    -5.065000000    -0.570000000     0.170000000
O    -3.204000000     1.610000000     6.755000000
H    -3.223000000     2.511000000     6.432000000
H    -2.494000000     1.195000000     6.265000000
O     1.234000000     4.938000000    -0.389000000
H     0.828000000     5.799000000    -0.294000000
H     0.499000000     4.340000000    -0.526000000
O     3.119000000     1.620000000    -5.282000000
H     2.602000000     1.372000000    -4.515000000
H     2.744000000     1.108000000    -5.999000000
O    -1.813000000     3.664000000     1.747000000
H    -2.327000000     4.454000000     1.916000000
H    -2.441000000     3.045000000     1.374000000
O    -6.393000000    -1.400000000     3.412000000
H    -7.174000000    -1.707000000     3.873000000
H    -6.061000000    -0.683000000     3.953000000
O     1.463000000    -3.892000000    -3.783000000
H     1.318000000    -2.984000000    -4.047000000
H     0.785000000    -4.063000000    -3.129000000
O     0.668000000     1.650000000    -8.230000000
H     1.077000000     1.011000000    -7.646000000
H     1.393000000     2.193000000    -8.538000000
O    -3.807000000    -2.841000000     3.740000000
H    -3.391000000    -2.642000000     2.901000000
H    -4.641000000    -2.373000000     3.711000000
O     0.687000000    -0.239000000     4.394000000
H     1.152000000    -0.025000000     5.203000000
H     1.289000000     0.019000000     3.696000000
O    -1.984000000    -3.116000000     1.425000000
H    -1.346000000    -3.080000000     0.713000000
H    -2.120000000    -4.051000000     1.578000000
O     2.663000000     2.006000000     6.027000000
H     1.768000000     2.292000000     6.209000000
H     2.903000000     2.467000000     5.223000000
