158
-3057.02531
C     1.362000000     0.389000000     0.006000000
H     2.420000000     0.589000000     0.155000000
C     0.676000000    -0.333000000     0.958000000
H     1.210000000    -0.673000000     1.841000000
C    -0.582000000    -0.711000000     0.800000000
H    -1.047000000    -1.282000000     1.537000000
C    -1.300000000    -0.369000000    -0.365000000
H    -2.310000000    -0.719000000    -0.563000000
C    -0.620000000     0.486000000    -1.289000000
H    -1.164000000     0.821000000    -2.169000000
C     0.698000000     0.864000000    -1.104000000
C     1.397000000     1.818000000    -2.045000000
O     2.554000000     2.176000000    -1.774000000
O     0.784000000     2.432000000    -2.894000000
O    -3.927000000     1.617000000    -3.721000000
H    -3.573000000     2.192000000    -4.398000000
H    -3.753000000     2.078000000    -2.900000000
O    -4.013000000    -5.100000000     2.438000000
H    -3.726000000    -5.889000000     1.978000000
H    -3.544000000    -4.386000000     2.006000000
O     3.910000000    -1.140000000     1.130000000
H     3.150000000    -1.247000000     0.557000000
H     3.862000000    -1.881000000     1.733000000
O    -2.594000000    -2.689000000     5.351000000
H    -3.490000000    -2.577000000     5.668000000
H    -2.044000000    -2.428000000     6.090000000
O     2.350000000     3.268000000     0.869000000
H     3.239000000     3.514000000     1.125000000
H     2.407000000     3.113000000    -0.074000000
O    -1.643000000     3.497000000    -4.210000000
H    -1.439000000     4.377000000    -3.894000000
H    -0.997000000     2.933000000    -3.784000000
O     4.905000000     4.063000000     0.764000000
H     4.992000000     4.798000000     0.157000000
H     5.183000000     3.300000000     0.258000000
O     0.852000000     5.078000000    -2.630000000
H     0.639000000     4.146000000    -2.678000000
H     0.168000000     5.507000000    -3.143000000
O    -5.800000000    -1.171000000     1.404000000
H    -6.428000000    -0.477000000     1.602000000
H    -5.935000000    -1.821000000     2.093000000
O    -2.050000000     1.170000000     6.845000000
H    -1.597000000     0.961000000     6.028000000
H    -2.979000000     1.131000000     6.620000000
O    -2.084000000    -2.941000000    -2.288000000
H    -2.477000000    -2.296000000    -2.876000000
H    -1.145000000    -2.759000000    -2.325000000
O     1.976000000     6.502000000    -0.313000000
H     1.450000000     5.961000000    -0.902000000
H     2.786000000     6.666000000    -0.797000000
O    -1.122000000     2.202000000     1.362000000
H    -0.900000000     3.090000000     1.085000000
H    -0.969000000     1.663000000     0.586000000
O    -5.255000000    -1.792000000    -1.072000000
H    -5.426000000    -1.622000000    -0.146000000
H    -5.841000000    -2.514000000    -1.296000000
O     4.064000000     2.574000000    -4.207000000
H     4.065000000     3.531000000    -4.237000000
H     3.520000000     2.359000000    -3.449000000
O    -3.873000000     3.515000000    -1.701000000
H    -3.759000000     3.224000000    -0.797000000
H    -3.232000000     4.219000000    -1.809000000
O    -0.361000000     4.129000000    -6.562000000
H     0.018000000     3.253000000    -6.482000000
H    -0.752000000     4.299000000    -5.705000000
O    -1.369000000     0.480000000     4.072000000
H    -0.530000000     0.047000000     3.918000000
H    -1.880000000     0.300000000     3.282000000
O     3.254000000     4.996000000    -3.694000000
H     3.676000000     5.576000000    -3.060000000
H     2.343000000     4.948000000    -3.405000000
O     1.309000000     2.767000000     3.269000000
H     0.759000000     3.543000000     3.156000000
H     1.542000000     2.507000000     2.378000000
O     5.484000000     0.759000000    -5.893000000
H     5.045000000     1.427000000    -5.367000000
H     6.409000000     0.841000000    -5.661000000
O    -0.467000000    -4.161000000     3.378000000
H    -1.270000000    -3.775000000     3.727000000
H    -0.094000000    -4.644000000     4.115000000
O     0.637000000    -2.501000000    -1.865000000
H     1.089000000    -3.200000000    -1.392000000
H     0.125000000    -2.050000000    -1.194000000
O     4.239000000     4.594000000    -6.116000000
H     3.629000000     4.841000000    -6.812000000
H     3.795000000     4.849000000    -5.307000000
O    -1.543000000     6.158000000    -3.995000000
H    -1.255000000     6.848000000    -4.594000000
H    -2.361000000     6.490000000    -3.623000000
O     0.746000000    -1.931000000     4.412000000
H     0.630000000    -2.194000000     5.325000000
H     0.533000000    -2.716000000     3.908000000
O     7.043000000    -0.234000000     0.718000000
H     6.339000000     0.345000000     1.011000000
H     7.490000000     0.262000000     0.032000000
O     1.024000000     0.850000000    -8.172000000
H     0.764000000     1.673000000    -8.585000000
H     1.211000000     1.086000000    -7.263000000
O    -0.373000000     4.857000000     0.630000000
H     0.565000000     4.713000000     0.508000000
H    -0.441000000     5.772000000     0.904000000
O    -3.401000000     1.002000000     2.196000000
H    -3.747000000     0.513000000     1.449000000
H    -2.532000000     1.288000000     1.913000000
O     1.930000000    -0.829000000    -3.696000000
H     2.781000000    -0.661000000    -3.290000000
H     1.589000000    -1.592000000    -3.230000000
O    -6.278000000    -2.762000000     3.308000000
H    -5.520000000    -2.564000000     3.858000000
H    -6.504000000    -3.666000000     3.528000000
O    -2.416000000     3.654000000     4.262000000
H    -2.823000000     3.737000000     5.124000000
H    -2.191000000     2.726000000     4.191000000
O    -2.931000000    -0.979000000    -4.197000000
H    -2.059000000    -0.647000000    -4.410000000
H    -3.465000000    -0.192000000    -4.083000000
O    -3.632000000    -3.956000000    -0.212000000
H    -4.337000000    -3.350000000    -0.439000000
H    -2.910000000    -3.712000000    -0.791000000
O     0.431000000    -4.268000000     5.997000000
H     1.085000000    -3.720000000     6.432000000
H     0.110000000    -4.850000000     6.685000000
O     1.370000000    -4.073000000     1.145000000
H     1.751000000    -4.148000000     2.020000000
H     0.425000000    -4.098000000     1.293000000
O    -0.326000000    -0.610000000    -5.053000000
H     0.389000000    -0.297000000    -4.499000000
H    -0.080000000    -1.508000000    -5.276000000
O     1.488000000     2.024000000    -5.469000000
H     2.429000000     2.086000000    -5.304000000
H     1.107000000     1.836000000    -4.612000000
O     4.148000000    -1.071000000    -2.116000000
H     4.862000000    -1.258000000    -2.726000000
H     4.553000000    -1.121000000    -1.250000000
O    -0.666000000    -5.435000000    -1.235000000
H    -1.263000000    -5.805000000    -1.885000000
H    -0.404000000    -4.591000000    -1.604000000
O     1.858000000     0.822000000     4.976000000
H     1.566000000    -0.002000000     4.584000000
H     1.536000000     1.498000000     4.379000000
O    -4.822000000    -1.888000000     6.261000000
H    -5.749000000    -1.825000000     6.493000000
H    -4.576000000    -0.995000000     6.017000000
O    -6.253000000     0.304000000    -2.719000000
H    -5.961000000    -0.506000000    -2.301000000
H    -5.458000000     0.831000000    -2.801000000
O    -4.187000000     0.912000000     4.966000000
H    -3.807000000     1.089000000     4.106000000
H    -5.110000000     1.145000000     4.874000000
O     4.870000000     1.848000000    -0.631000000
H     4.030000000     1.843000000    -1.090000000
H     5.520000000     1.711000000    -1.320000000
O    -3.789000000     3.655000000     0.904000000
H    -4.176000000     4.496000000     1.145000000
H    -3.707000000     3.183000000     1.733000000
O     4.612000000     1.324000000     2.152000000
H     4.318000000     1.769000000     1.357000000
H     4.336000000     0.415000000     2.033000000
