158
-3053.48134
C     0.994000000     0.834000000     0.771000000
H     1.602000000     1.533000000     1.340000000
C     0.013000000     0.018000000     1.342000000
H    -0.004000000    -0.146000000     2.416000000
C    -0.907000000    -0.667000000     0.565000000
H    -1.788000000    -1.133000000     1.070000000
C    -0.796000000    -0.659000000    -0.817000000
H    -1.453000000    -1.176000000    -1.511000000
C     0.157000000     0.241000000    -1.355000000
H     0.243000000     0.254000000    -2.439000000
C     1.099000000     0.893000000    -0.655000000
C     2.180000000     1.745000000    -1.320000000
O     3.067000000     2.297000000    -0.634000000
O     2.175000000     1.938000000    -2.505000000
O     3.701000000    -1.434000000     2.839000000
H     3.564000000    -2.381000000     2.822000000
H     3.231000000    -1.137000000     3.618000000
O    -1.104000000    -2.337000000     5.783000000
H    -1.750000000    -1.960000000     5.185000000
H    -1.350000000    -2.000000000     6.644000000
O     3.469000000    -1.325000000    -0.254000000
H     3.808000000    -1.225000000     0.635000000
H     3.955000000    -0.682000000    -0.770000000
O     4.116000000     3.235000000     1.699000000
H     4.990000000     3.497000000     1.411000000
H     3.683000000     2.929000000     0.902000000
O     7.129000000     2.129000000    -2.655000000
H     6.486000000     2.740000000    -3.015000000
H     7.763000000     2.686000000    -2.203000000
O    -0.296000000     2.528000000    -3.692000000
H    -0.561000000     3.188000000    -3.051000000
H     0.598000000     2.297000000    -3.443000000
O    -0.246000000    -6.595000000    -1.273000000
H    -0.458000000    -5.667000000    -1.373000000
H     0.652000000    -6.672000000    -1.595000000
O     2.733000000     4.809000000    -2.670000000
H     2.582000000     4.064000000    -2.087000000
H     2.003000000     5.402000000    -2.494000000
O    -3.970000000    -3.221000000     2.966000000
H    -4.201000000    -3.787000000     3.703000000
H    -3.100000000    -3.518000000     2.700000000
O    -1.779000000    -3.943000000    -2.245000000
H    -2.461000000    -3.645000000    -1.644000000
H    -1.789000000    -3.302000000    -2.956000000
O    -6.105000000    -1.733000000     2.984000000
H    -5.838000000    -1.168000000     2.260000000
H    -5.402000000    -2.379000000     3.056000000
O    -1.977000000     2.168000000     0.246000000
H    -1.334000000     2.877000000     0.263000000
H    -1.512000000     1.432000000    -0.151000000
O    -6.109000000    -1.529000000    -1.522000000
H    -5.312000000    -2.059000000    -1.516000000
H    -5.970000000    -0.880000000    -0.832000000
O     5.384000000     0.756000000    -0.868000000
H     4.640000000     1.349000000    -0.762000000
H     5.956000000     1.198000000    -1.496000000
O    -6.671000000     0.871000000     4.195000000
H    -6.509000000    -0.006000000     3.848000000
H    -6.658000000     1.440000000     3.425000000
O    -4.072000000     1.935000000    -1.709000000
H    -4.144000000     1.043000000    -2.048000000
H    -3.449000000     1.867000000    -0.985000000
O     0.756000000    -5.694000000     4.180000000
H     1.396000000    -6.406000000     4.206000000
H     0.402000000    -5.722000000     3.291000000
O     2.428000000     2.948000000    -5.101000000
H     3.370000000     3.078000000    -5.203000000
H     2.326000000     2.627000000    -4.205000000
O     1.105000000     1.508000000     5.825000000
H     1.659000000     0.740000000     5.685000000
H     1.369000000     2.121000000     5.140000000
O     5.167000000     4.036000000    -3.625000000
H     5.649000000     4.827000000    -3.866000000
H     4.308000000     4.354000000    -3.349000000
O     2.228000000     3.012000000     3.732000000
H     2.593000000     3.750000000     4.220000000
H     2.747000000     2.976000000     2.928000000
O    -4.380000000    -5.190000000    -3.306000000
H    -4.105000000    -4.400000000    -2.840000000
H    -5.302000000    -5.038000000    -3.511000000
O     1.277000000    -3.154000000     4.961000000
H     0.441000000    -2.815000000     5.280000000
H     1.093000000    -4.064000000     4.726000000
O    -2.630000000     1.623000000    -4.675000000
H    -2.483000000     1.166000000    -5.503000000
H    -1.813000000     2.097000000    -4.515000000
O    -2.468000000    -4.819000000     6.454000000
H    -2.823000000    -5.393000000     5.776000000
H    -2.131000000    -4.062000000     5.974000000
O     2.412000000     5.815000000     1.989000000
H     2.338000000     5.626000000     2.925000000
H     3.354000000     5.895000000     1.835000000
O     1.344000000    -2.847000000    -0.467000000
H     2.124000000    -2.312000000    -0.323000000
H     0.613000000    -2.236000000    -0.378000000
O    -5.279000000    -0.036000000     0.790000000
H    -4.497000000     0.327000000     1.206000000
H    -5.958000000     0.621000000     0.942000000
O    -0.732000000     4.518000000    -1.721000000
H    -0.217000000     5.269000000    -1.425000000
H    -1.312000000     4.322000000    -0.985000000
O     2.838000000    -0.768000000     5.326000000
H     3.530000000    -1.227000000     5.801000000
H     2.084000000    -1.355000000     5.375000000
O     1.468000000     2.066000000    -7.478000000
H     1.966000000     2.476000000    -8.186000000
H     1.808000000     2.472000000    -6.680000000
O    -0.048000000     3.825000000     1.237000000
H     0.677000000     3.289000000     1.559000000
H     0.292000000     4.719000000     1.245000000
O    -2.789000000    -0.944000000     4.155000000
H    -3.296000000    -1.726000000     3.938000000
H    -3.015000000    -0.314000000     3.470000000
O    -1.533000000     3.164000000     4.446000000
H    -1.202000000     2.269000000     4.514000000
H    -0.968000000     3.673000000     5.027000000
O    -3.848000000    -0.210000000    -3.174000000
H    -3.168000000     0.241000000    -3.675000000
H    -4.221000000    -0.841000000    -3.790000000
O     0.653000000    -0.699000000    -7.256000000
H     0.857000000     0.228000000    -7.380000000
H     1.361000000    -1.028000000    -6.702000000
O    -1.727000000    -3.601000000     1.622000000
H    -0.966000000    -3.027000000     1.712000000
H    -1.386000000    -4.384000000     1.190000000
O     3.108000000    -4.198000000     2.578000000
H     3.156000000    -4.398000000     3.513000000
H     2.178000000    -4.276000000     2.364000000
O    -1.287000000    -3.587000000    -5.084000000
H    -0.778000000    -4.191000000    -5.625000000
H    -1.231000000    -2.749000000    -5.542000000
O     4.618000000     1.389000000    -4.529000000
H     4.895000000     2.099000000    -3.949000000
H     4.334000000     0.693000000    -3.936000000
O     0.700000000     6.393000000    -0.058000000
H     0.823000000     7.312000000    -0.298000000
H     1.319000000     6.249000000     0.658000000
O     0.856000000    -4.943000000     1.135000000
H     0.884000000    -5.684000000     0.530000000
H     1.153000000    -4.197000000     0.614000000
O    -4.014000000    -3.422000000    -0.308000000
H    -3.478000000    -3.298000000     0.476000000
H    -4.877000000    -3.664000000     0.027000000
O    -2.890000000     0.276000000     6.712000000
H    -3.058000000    -0.157000000     5.875000000
H    -3.688000000     0.773000000     6.889000000
O     0.961000000     4.967000000    -6.235000000
H     0.120000000     4.583000000    -5.989000000
H     1.612000000     4.345000000    -5.909000000
O     7.581000000     1.808000000     0.656000000
H     6.837000000     1.399000000     0.214000000
H     8.309000000     1.705000000     0.043000000
O    -3.211000000     1.108000000     2.289000000
H    -3.372000000     1.866000000     2.852000000
H    -2.555000000     1.411000000     1.662000000
O     5.285000000     0.822000000     2.766000000
H     4.925000000     1.603000000     2.345000000
H     4.680000000     0.120000000     2.527000000
