158
-3029.52878
C     1.375000000    -0.484000000    -0.325000000
H     2.445000000    -0.673000000    -0.287000000
C     0.529000000    -0.948000000     0.687000000
H     0.953000000    -1.614000000     1.434000000
C    -0.772000000    -0.486000000     0.803000000
H    -1.480000000    -0.897000000     1.548000000
C    -1.311000000     0.412000000    -0.084000000
H    -2.310000000     0.833000000    -0.009000000
C    -0.422000000     0.906000000    -1.090000000
H    -0.711000000     1.775000000    -1.675000000
C     0.911000000     0.471000000    -1.185000000
C     1.846000000     1.111000000    -2.128000000
O     3.060000000     1.013000000    -1.981000000
O     1.334000000     1.717000000    -3.040000000
O    -4.196000000     1.312000000    -2.128000000
H    -3.333000000     1.727000000    -2.146000000
H    -4.797000000     2.021000000    -1.900000000
O    -2.587000000    -3.411000000     1.186000000
H    -3.027000000    -3.792000000     0.426000000
H    -1.923000000    -2.831000000     0.812000000
O     2.556000000     1.438000000     5.951000000
H     1.938000000     1.612000000     6.660000000
H     2.073000000     1.653000000     5.153000000
O     3.416000000    -3.268000000    -1.805000000
H     3.274000000    -2.448000000    -1.333000000
H     3.113000000    -3.947000000    -1.202000000
O     1.747000000    -5.687000000     4.154000000
H     2.006000000    -4.971000000     4.734000000
H     1.210000000    -5.268000000     3.481000000
O     6.310000000    -3.520000000    -0.945000000
H     6.732000000    -4.313000000    -1.277000000
H     5.373000000    -3.690000000    -1.042000000
O     1.742000000     3.216000000     2.312000000
H     1.817000000     3.609000000     3.182000000
H     1.655000000     2.278000000     2.479000000
O     7.114000000     3.298000000    -4.295000000
H     6.502000000     3.363000000    -3.562000000
H     7.432000000     4.192000000    -4.421000000
O    -1.918000000     3.128000000    -5.640000000
H    -1.841000000     3.787000000    -4.949000000
H    -2.660000000     3.421000000    -6.168000000
O     2.368000000     4.860000000    -2.714000000
H     2.174000000     3.923000000    -2.738000000
H     2.145000000     5.128000000    -1.823000000
O    -1.823000000    -2.254000000    -2.260000000
H    -1.006000000    -1.842000000    -2.540000000
H    -2.233000000    -1.607000000    -1.686000000
O     3.916000000    -0.179000000    -7.136000000
H     4.715000000     0.302000000    -6.921000000
H     3.491000000    -0.326000000    -6.291000000
O    -1.215000000     2.779000000     1.435000000
H    -0.504000000     3.288000000     1.824000000
H    -0.918000000     1.871000000     1.491000000
O     4.986000000     3.661000000    -2.370000000
H     4.637000000     3.520000000    -1.490000000
H     4.632000000     2.937000000    -2.887000000
O    -2.081000000     4.444000000    -0.998000000
H    -1.890000000     3.724000000    -0.397000000
H    -1.736000000     5.221000000    -0.558000000
O     1.341000000     4.762000000    -5.542000000
H     1.835000000     4.772000000    -4.721000000
H     0.430000000     4.650000000    -5.272000000
O     0.327000000    -5.784000000     0.526000000
H     0.245000000    -5.472000000    -0.375000000
H    -0.318000000    -6.488000000     0.596000000
O     1.354000000     3.273000000    -7.788000000
H     1.267000000     2.461000000    -7.289000000
H     1.797000000     3.875000000    -7.190000000
O    -2.287000000     0.488000000     4.551000000
H    -2.020000000    -0.401000000     4.783000000
H    -3.110000000     0.374000000     4.075000000
O    -0.140000000    -3.986000000     2.663000000
H     0.266000000    -4.334000000     1.870000000
H    -1.073000000    -4.173000000     2.557000000
O    -3.383000000    -3.720000000     3.811000000
H    -3.161000000    -3.488000000     2.909000000
H    -4.204000000    -3.258000000     3.982000000
O     1.385000000    -2.847000000    -3.273000000
H     1.431000000    -3.587000000    -3.878000000
H     1.830000000    -3.156000000    -2.483000000
O     4.511000000     4.447000000    -5.919000000
H     4.087000000     3.663000000    -5.569000000
H     4.517000000     5.063000000    -5.186000000
O    -1.726000000     5.324000000    -3.764000000
H    -0.965000000     5.628000000    -3.269000000
H    -2.264000000     6.107000000    -3.880000000
O    -0.768000000    -1.730000000     4.121000000
H    -0.839000000    -2.583000000     3.694000000
H    -0.149000000    -1.871000000     4.837000000
O     0.408000000     1.209000000    -5.431000000
H    -0.390000000     1.735000000    -5.476000000
H     0.762000000     1.384000000    -4.559000000
O     1.526000000     4.848000000     0.070000000
H     1.840000000     4.342000000     0.819000000
H     0.660000000     5.158000000     0.335000000
O    -4.715000000     0.379000000     2.282000000
H    -4.283000000     1.233000000     2.278000000
H    -5.166000000     0.335000000     1.438000000
O     3.472000000    -0.409000000    -4.182000000
H     3.527000000     0.148000000    -3.406000000
H     3.674000000    -1.288000000    -3.860000000
O    -1.354000000     2.408000000     6.324000000
H    -1.994000000     2.311000000     7.029000000
H    -1.700000000     1.873000000     5.610000000
O    -3.136000000    -0.057000000    -4.595000000
H    -2.767000000     0.724000000    -5.006000000
H    -3.886000000     0.266000000    -4.096000000
O    -4.997000000    -1.808000000    -0.201000000
H    -5.675000000    -1.269000000     0.207000000
H    -5.006000000    -2.623000000     0.301000000
O     3.951000000    -1.475000000     4.369000000
H     3.888000000    -0.685000000     4.906000000
H     4.065000000    -1.149000000     3.476000000
O     2.665000000    -3.612000000     5.503000000
H     3.142000000    -3.215000000     4.775000000
H     2.842000000    -3.037000000     6.248000000
O     3.025000000    -5.212000000     0.304000000
H     3.550000000    -5.379000000     1.087000000
H     2.152000000    -5.534000000     0.528000000
O     0.965000000    -1.239000000    -5.961000000
H     1.308000000    -1.656000000    -5.170000000
H     0.840000000    -0.323000000    -5.714000000
O     3.202000000     2.406000000    -4.962000000
H     3.486000000     1.508000000    -5.132000000
H     2.468000000     2.315000000    -4.354000000
O     4.963000000     0.237000000    -0.152000000
H     5.619000000    -0.316000000    -0.577000000
H     4.400000000     0.533000000    -0.867000000
O    -0.345000000    -4.777000000    -1.853000000
H     0.007000000    -5.116000000    -2.676000000
H    -0.735000000    -3.935000000    -2.089000000
O    -3.632000000    -4.169000000    -1.395000000
H    -4.479000000    -3.744000000    -1.530000000
H    -3.023000000    -3.666000000    -1.937000000
O     0.382000000     1.101000000     3.723000000
H     0.438000000     0.151000000     3.621000000
H    -0.527000000     1.262000000     3.978000000
O    -1.365000000    -3.702000000     6.114000000
H    -0.852000000    -4.509000000     6.069000000
H    -1.949000000    -3.747000000     5.357000000
O    -4.135000000    -6.616000000     2.076000000
H    -3.946000000    -6.124000000     2.875000000
H    -4.925000000    -6.207000000     1.724000000
O    -5.909000000    -0.667000000    -2.993000000
H    -5.198000000    -0.197000000    -2.558000000
H    -6.039000000    -1.451000000    -2.460000000
O    -5.664000000    -0.196000000     4.841000000
H    -6.265000000     0.495000000     5.121000000
H    -5.335000000     0.102000000     3.993000000
O     6.119000000     2.737000000     0.710000000
H     5.325000000     2.204000000     0.730000000
H     6.709000000     2.266000000     0.122000000
O    -4.050000000     3.219000000     1.966000000
H    -4.321000000     3.899000000     1.350000000
H    -3.094000000     3.212000000     1.909000000
O     4.544000000     0.658000000     2.397000000
H     4.705000000     0.372000000     1.497000000
H     5.386000000     1.005000000     2.692000000
