158
-3034.59970
C     0.898000000     1.215000000     0.035000000
H     1.558000000     2.078000000     0.040000000
C     1.058000000     0.098000000     0.862000000
H     1.804000000     0.041000000     1.650000000
C     0.161000000    -0.946000000     0.725000000
H     0.176000000    -1.783000000     1.380000000
C    -0.902000000    -0.896000000    -0.192000000
H    -1.641000000    -1.691000000    -0.242000000
C    -1.049000000     0.209000000    -1.061000000
H    -1.788000000     0.275000000    -1.855000000
C    -0.117000000     1.228000000    -0.921000000
C    -0.233000000     2.352000000    -1.928000000
O     0.708000000     3.076000000    -2.019000000
O    -1.286000000     2.619000000    -2.517000000
O     5.664000000    -0.908000000    -0.617000000
H     5.382000000    -1.750000000    -0.259000000
H     6.079000000    -0.461000000     0.121000000
O    -5.384000000     0.531000000     1.877000000
H    -4.521000000     0.177000000     1.660000000
H    -5.231000000     1.465000000     2.021000000
O     1.610000000     6.856000000    -0.075000000
H     0.735000000     6.806000000    -0.460000000
H     2.204000000     6.817000000    -0.825000000
O     1.065000000     2.217000000     4.847000000
H     1.031000000     1.263000000     4.780000000
H     0.363000000     2.439000000     5.460000000
O     3.382000000    -3.814000000    -1.996000000
H     2.868000000    -4.564000000    -1.696000000
H     3.624000000    -4.034000000    -2.896000000
O     2.479000000    -2.745000000     7.301000000
H     1.954000000    -2.865000000     6.510000000
H     2.674000000    -3.634000000     7.596000000
O    -4.072000000     4.077000000    -5.039000000
H    -4.067000000     4.668000000    -4.285000000
H    -4.723000000     4.452000000    -5.632000000
O     2.820000000     2.687000000     2.184000000
H     1.999000000     2.292000000     1.891000000
H     2.624000000     3.622000000     2.253000000
O     3.490000000     6.227000000    -2.887000000
H     2.563000000     5.993000000    -2.923000000
H     3.764000000     6.261000000    -3.804000000
O     4.628000000    -3.091000000     0.343000000
H     4.802000000    -4.007000000     0.557000000
H     4.291000000    -3.114000000    -0.553000000
O    -1.294000000     7.481000000    -0.889000000
H    -1.475000000     6.750000000    -1.480000000
H    -1.225000000     8.243000000    -1.464000000
O    -1.009000000     1.705000000    -6.687000000
H    -1.564000000     2.347000000    -7.129000000
H    -0.126000000     1.889000000    -7.009000000
O     5.624000000     3.306000000     1.720000000
H     5.468000000     3.936000000     1.016000000
H     4.761000000     2.938000000     1.908000000
O    -1.296000000     4.700000000     3.224000000
H    -1.081000000     3.823000000     2.906000000
H    -1.875000000     5.062000000     2.554000000
O     0.621000000     5.535000000    -2.760000000
H     0.119000000     5.377000000    -3.560000000
H     0.602000000     4.698000000    -2.296000000
O    -3.068000000     3.817000000     0.651000000
H    -3.902000000     3.736000000     1.114000000
H    -2.504000000     3.158000000     1.056000000
O    -4.888000000    -3.870000000     1.747000000
H    -4.118000000    -3.360000000     1.999000000
H    -5.253000000    -3.399000000     0.998000000
O    -3.712000000     1.868000000    -3.514000000
H    -3.833000000     2.513000000    -4.210000000
H    -2.961000000     2.190000000    -3.016000000
O    -2.723000000    -0.274000000     2.212000000
H    -2.120000000    -0.353000000     1.473000000
H    -2.654000000    -1.113000000     2.668000000
O     3.388000000    -1.842000000     2.327000000
H     3.698000000    -1.671000000     1.438000000
H     3.374000000    -2.797000000     2.397000000
O     1.936000000     5.485000000     2.326000000
H     1.628000000     6.029000000     1.602000000
H     1.317000000     5.657000000     3.036000000
O     1.248000000    -5.561000000     5.052000000
H     1.155000000    -6.487000000     4.827000000
H     2.022000000    -5.528000000     5.614000000
O     4.906000000     4.851000000    -0.475000000
H     4.418000000     5.535000000    -0.933000000
H     4.378000000     4.061000000    -0.591000000
O     1.743000000    -0.197000000    -5.019000000
H     2.651000000    -0.344000000    -4.752000000
H     1.276000000    -0.976000000    -4.717000000
O    -1.924000000     0.043000000    -4.801000000
H    -2.274000000     0.712000000    -4.212000000
H    -1.401000000     0.533000000    -5.435000000
O     2.112000000     5.230000000    -5.910000000
H     3.020000000     4.959000000    -5.775000000
H     1.596000000     4.451000000    -5.699000000
O    -0.862000000     7.072000000    -5.637000000
H    -0.799000000     6.304000000    -5.068000000
H    -1.342000000     7.717000000    -5.117000000
O    -4.808000000     5.674000000    -2.772000000
H    -4.050000000     5.314000000    -2.312000000
H    -4.694000000     6.623000000    -2.716000000
O    -2.834000000    -2.690000000     3.748000000
H    -3.736000000    -2.669000000     4.066000000
H    -2.302000000    -2.752000000     4.541000000
O     0.800000000    -2.442000000    -4.088000000
H     0.193000000    -3.103000000    -3.753000000
H     1.668000000    -2.818000000    -3.941000000
O    -2.366000000    -5.199000000    -0.788000000
H    -2.884000000    -4.887000000    -1.530000000
H    -1.459000000    -5.029000000    -1.041000000
O    -2.387000000     4.849000000    -1.726000000
H    -2.708000000     4.586000000    -0.863000000
H    -1.844000000     4.115000000    -2.013000000
O     1.424000000     2.702000000    -4.618000000
H     1.211000000     1.770000000    -4.651000000
H     1.213000000     2.965000000    -3.722000000
O    -5.304000000     0.417000000    -5.540000000
H    -5.296000000     1.223000000    -6.056000000
H    -4.857000000     0.650000000    -4.726000000
O    -4.966000000     0.010000000    -1.802000000
H    -5.355000000     0.655000000    -1.211000000
H    -4.376000000     0.519000000    -2.358000000
O    -1.551000000    -4.466000000     1.976000000
H    -2.036000000    -3.884000000     2.561000000
H    -2.218000000    -5.048000000     1.612000000
O     1.633000000    -5.925000000    -2.144000000
H     0.946000000    -6.086000000    -2.791000000
H     1.160000000    -5.716000000    -1.339000000
O    -1.057000000     4.159000000    -4.718000000
H    -0.464000000     3.561000000    -5.172000000
H    -1.265000000     3.713000000    -3.897000000
O     3.222000000     2.977000000    -1.549000000
H     3.271000000     2.034000000    -1.391000000
H     2.292000000     3.147000000    -1.698000000
O     0.172000000    -5.014000000     0.204000000
H     0.886000000    -4.962000000     0.839000000
H    -0.596000000    -4.700000000     0.681000000
O    -4.625000000    -2.441000000    -0.727000000
H    -4.500000000    -3.080000000    -1.429000000
H    -4.595000000    -1.592000000    -1.168000000
O     1.439000000    -0.366000000     4.408000000
H     2.330000000    -0.532000000     4.101000000
H     1.048000000    -1.235000000     4.491000000
O     0.393000000    -2.784000000     5.402000000
H     0.364000000    -3.598000000     4.898000000
H    -0.436000000    -2.770000000     5.881000000
O     4.762000000    -0.538000000     4.390000000
H     4.478000000    -0.998000000     3.600000000
H     5.192000000    -1.211000000     4.918000000
O    -3.378000000    -2.954000000    -4.790000000
H    -2.706000000    -2.306000000    -5.003000000
H    -4.140000000    -2.686000000    -5.304000000
O    -1.269000000     1.913000000     2.706000000
H    -0.435000000     1.820000000     3.167000000
H    -1.673000000     1.047000000     2.765000000
O     5.611000000     3.143000000    -2.928000000
H     5.127000000     3.535000000    -3.656000000
H     4.935000000     2.900000000    -2.295000000
O     3.438000000     0.149000000    -1.639000000
H     4.151000000    -0.317000000    -1.202000000
H     2.818000000    -0.538000000    -1.885000000
