158
-3026.51203
C     0.476000000     1.419000000    -0.049000000
H     0.822000000     2.449000000    -0.086000000
C    -0.764000000     0.998000000     0.474000000
H    -1.456000000     1.731000000     0.881000000
C    -1.159000000    -0.347000000     0.363000000
H    -2.151000000    -0.763000000     0.631000000
C    -0.237000000    -1.282000000    -0.056000000
H    -0.478000000    -2.341000000    -0.103000000
C     0.985000000    -0.890000000    -0.486000000
H     1.621000000    -1.701000000    -0.832000000
C     1.366000000     0.432000000    -0.541000000
C     2.775000000     0.832000000    -0.932000000
O     3.224000000     1.974000000    -0.982000000
O     3.506000000    -0.049000000    -1.239000000
O    -4.603000000    -1.717000000     2.836000000
H    -5.012000000    -1.784000000     3.699000000
H    -3.744000000    -2.123000000     2.946000000
O    -1.508000000    -1.307000000    -3.610000000
H    -2.000000000    -2.084000000    -3.345000000
H    -1.972000000    -0.578000000    -3.198000000
O     7.837000000     2.621000000     1.550000000
H     8.535000000     1.980000000     1.414000000
H     7.180000000     2.402000000     0.889000000
O    -2.259000000    -3.267000000     2.679000000
H    -1.451000000    -3.499000000     2.221000000
H    -2.784000000    -4.068000000     2.659000000
O     5.845000000    -4.248000000    -1.466000000
H     5.074000000    -3.781000000    -1.144000000
H     5.513000000    -5.106000000    -1.732000000
O     7.074000000    -1.953000000    -0.430000000
H     6.762000000    -2.762000000    -0.835000000
H     7.178000000    -1.343000000    -1.160000000
O     4.160000000     3.380000000     0.968000000
H     3.934000000     2.647000000     0.395000000
H     3.442000000     3.423000000     1.598000000
O     0.285000000    -4.769000000     1.328000000
H    -0.208000000    -4.973000000     0.533000000
H     0.014000000    -5.438000000     1.956000000
O     2.673000000     4.393000000    -1.784000000
H     3.191000000     5.007000000    -1.263000000
H     2.860000000     3.536000000    -1.399000000
O     6.192000000     4.300000000    -0.543000000
H     5.842000000     3.577000000    -1.064000000
H     5.901000000     4.114000000     0.350000000
O    -0.112000000     5.061000000    -1.208000000
H     0.704000000     4.562000000    -1.211000000
H     0.159000000     5.965000000    -1.367000000
O     4.523000000    -0.180000000     1.787000000
H     4.342000000    -0.872000000     1.151000000
H     4.885000000     0.536000000     1.264000000
O     5.420000000     1.704000000     3.548000000
H     4.952000000     2.509000000     3.324000000
H     4.962000000     1.018000000     3.063000000
O    -1.049000000     4.229000000     1.818000000
H    -1.944000000     3.906000000     1.919000000
H    -1.010000000     4.551000000     0.918000000
O    -6.022000000    -2.593000000     0.651000000
H    -6.805000000    -2.999000000     1.024000000
H    -5.565000000    -2.218000000     1.404000000
O     5.875000000     1.241000000    -0.127000000
H     5.055000000     1.089000000    -0.596000000
H     6.546000000     0.841000000    -0.681000000
O     4.982000000     2.555000000    -2.770000000
H     4.803000000     2.516000000    -3.710000000
H     4.139000000     2.366000000    -2.358000000
O    -5.000000000    -4.640000000    -1.751000000
H    -4.425000000    -4.068000000    -1.243000000
H    -5.080000000    -5.432000000    -1.219000000
O     4.477000000     6.889000000    -0.437000000
H     5.042000000     6.159000000    -0.688000000
H     5.077000000     7.626000000    -0.318000000
O     3.423000000    -4.506000000    -4.863000000
H     2.728000000    -4.178000000    -5.433000000
H     2.964000000    -4.839000000    -4.092000000
O    -2.347000000     0.945000000    -2.310000000
H    -1.829000000     0.634000000    -1.569000000
H    -2.374000000     1.896000000    -2.201000000
O    -2.422000000     3.746000000    -1.718000000
H    -3.100000000     4.396000000    -1.898000000
H    -1.630000000     4.261000000    -1.566000000
O    -6.968000000    -1.615000000    -1.738000000
H    -7.835000000    -1.228000000    -1.615000000
H    -6.646000000    -1.767000000    -0.850000000
O    -3.669000000    -3.943000000    -3.907000000
H    -3.451000000    -4.705000000    -4.444000000
H    -4.123000000    -4.309000000    -3.147000000
O    -5.112000000     0.431000000    -3.111000000
H    -5.501000000    -0.198000000    -2.503000000
H    -4.418000000     0.855000000    -2.607000000
O     4.500000000     1.170000000    -5.291000000
H     3.995000000     0.651000000    -5.916000000
H     5.275000000     1.448000000    -5.780000000
O    -3.998000000     3.988000000     2.548000000
H    -4.182000000     4.829000000     2.968000000
H    -4.765000000     3.820000000     2.002000000
O    -0.944000000    -5.650000000    -1.000000000
H    -0.650000000    -5.898000000    -1.876000000
H    -1.503000000    -4.886000000    -1.141000000
O    -5.711000000     2.333000000     5.084000000
H    -4.922000000     2.359000000     4.543000000
H    -5.871000000     1.401000000     5.231000000
O     1.416000000     3.881000000     2.607000000
H     0.621000000     3.957000000     2.079000000
H     1.416000000     4.666000000     3.154000000
O    -2.529000000    -2.528000000     5.232000000
H    -2.165000000    -2.739000000     4.372000000
H    -2.088000000    -3.129000000     5.833000000
O     0.407000000     1.439000000     3.256000000
H     0.604000000     2.375000000     3.209000000
H     0.789000000     1.073000000     2.458000000
O    -1.827000000     6.432000000     2.982000000
H    -1.070000000     6.932000000     3.286000000
H    -1.475000000     5.567000000     2.773000000
O    -3.423000000    -3.226000000    -0.179000000
H    -4.297000000    -2.859000000    -0.044000000
H    -2.960000000    -3.053000000     0.641000000
O     0.904000000    -1.717000000    -5.127000000
H     1.581000000    -1.654000000    -4.453000000
H     0.082000000    -1.603000000    -4.652000000
O     3.191000000    -1.162000000    -3.847000000
H     3.897000000    -0.567000000    -4.100000000
H     3.172000000    -1.119000000    -2.891000000
O    -3.523000000    -5.671000000     1.597000000
H    -3.493000000    -6.060000000     0.723000000
H    -4.451000000    -5.678000000     1.831000000
O    -2.102000000     1.199000000     6.732000000
H    -2.773000000     0.767000000     6.203000000
H    -1.274000000     0.858000000     6.395000000
O     7.653000000    -1.585000000    -3.989000000
H     7.234000000    -2.334000000    -4.411000000
H     6.931000000    -1.098000000    -3.592000000
O     3.845000000    -2.569000000    -0.307000000
H     3.234000000    -2.718000000     0.414000000
H     3.676000000    -1.668000000    -0.583000000
O    -5.135000000    -2.610000000     5.455000000
H    -4.217000000    -2.874000000     5.379000000
H    -5.501000000    -3.204000000     6.111000000
O    -6.165000000     3.245000000     1.292000000
H    -6.202000000     2.289000000     1.273000000
H    -6.933000000     3.525000000     0.795000000
O     2.200000000    -2.925000000     2.212000000
H     1.542000000    -3.483000000     1.796000000
H     1.691000000    -2.291000000     2.717000000
O     1.108000000    -1.282000000     3.987000000
H     0.567000000    -0.516000000     3.797000000
H     1.491000000    -1.099000000     4.844000000
O     5.986000000     0.034000000    -2.515000000
H     6.199000000     0.962000000    -2.614000000
H     5.069000000     0.027000000    -2.241000000
O     1.829000000     4.008000000    -4.393000000
H     2.174000000     4.022000000    -3.500000000
H     1.056000000     4.571000000    -4.360000000
O    -3.358000000     1.638000000     3.818000000
H    -3.473000000     2.319000000     3.156000000
H    -2.441000000     1.376000000     3.735000000
O    -5.284000000     0.669000000     1.411000000
H    -5.259000000    -0.100000000     1.979000000
H    -4.399000000     0.730000000     1.051000000
