158
-3046.47973
C     1.045000000     1.010000000     0.113000000
H     1.723000000     1.839000000     0.299000000
C    -0.268000000     1.232000000     0.404000000
H    -0.502000000     2.286000000     0.532000000
C    -1.238000000     0.204000000     0.184000000
H    -2.304000000     0.270000000     0.353000000
C    -0.779000000    -1.081000000    -0.156000000
H    -1.372000000    -1.980000000    -0.305000000
C     0.566000000    -1.317000000    -0.333000000
H     0.881000000    -2.328000000    -0.579000000
C     1.508000000    -0.299000000    -0.218000000
C     2.998000000    -0.513000000    -0.399000000
O     3.743000000     0.437000000    -0.606000000
O     3.585000000    -1.641000000    -0.512000000
O     3.634000000    -4.438000000     2.891000000
H     2.860000000    -4.160000000     2.401000000
H     4.372000000    -4.103000000     2.382000000
O    -4.013000000     0.014000000     2.561000000
H    -3.322000000     0.284000000     3.166000000
H    -3.973000000    -0.943000000     2.565000000
O    -1.498000000     1.534000000    -2.505000000
H    -1.364000000     0.806000000    -1.899000000
H    -1.755000000     1.118000000    -3.328000000
O    -2.929000000    -2.759000000     2.043000000
H    -2.090000000    -2.300000000     1.991000000
H    -2.982000000    -3.059000000     2.950000000
O    -1.211000000    -2.014000000    -5.008000000
H    -1.265000000    -1.076000000    -5.193000000
H    -1.612000000    -2.111000000    -4.144000000
O     5.752000000    -3.623000000    -0.648000000
H     5.775000000    -2.961000000    -1.338000000
H     5.067000000    -4.232000000    -0.923000000
O     8.689000000    -2.762000000    -0.676000000
H     7.798000000    -3.063000000    -0.498000000
H     9.030000000    -2.504000000     0.180000000
O     3.588000000     1.047000000     2.164000000
H     3.536000000     0.862000000     1.227000000
H     4.072000000     1.871000000     2.220000000
O     8.016000000     0.169000000    -2.444000000
H     7.180000000    -0.011000000    -2.875000000
H     8.628000000     0.319000000    -3.164000000
O    -0.345000000    -6.030000000     0.494000000
H    -1.233000000    -5.699000000     0.355000000
H    -0.460000000    -6.968000000     0.645000000
O     0.948000000    -6.458000000    -1.930000000
H     0.628000000    -6.209000000    -1.062000000
H     0.493000000    -7.277000000    -2.127000000
O     3.621000000     5.026000000    -1.431000000
H     3.964000000     5.404000000    -0.622000000
H     4.055000000     4.175000000    -1.501000000
O    -0.707000000     4.291000000    -2.677000000
H    -1.181000000     3.512000000    -2.387000000
H    -0.358000000     4.673000000    -1.872000000
O     5.021000000    -2.236000000     1.911000000
H     4.557000000    -1.966000000     1.119000000
H     5.810000000    -1.693000000     1.923000000
O     5.014000000     3.272000000     1.783000000
H     4.697000000     4.123000000     1.479000000
H     5.965000000     3.322000000     1.688000000
O     6.669000000     1.134000000     3.144000000
H     6.286000000     0.913000000     2.295000000
H     7.614000000     1.109000000     2.994000000
O     0.833000000     5.594000000    -0.889000000
H     0.766000000     6.540000000    -0.758000000
H     1.699000000     5.467000000    -1.278000000
O     6.277000000     0.164000000     0.624000000
H     5.530000000     0.418000000     0.082000000
H     7.028000000     0.208000000     0.033000000
O     4.762000000     2.502000000    -2.024000000
H     4.609000000     2.450000000    -2.967000000
H     4.457000000     1.661000000    -1.684000000
O     1.215000000    -3.626000000    -5.476000000
H     0.431000000    -3.077000000    -5.458000000
H     1.759000000    -3.290000000    -4.763000000
O     2.844000000    -1.196000000     3.523000000
H     3.409000000    -1.815000000     3.060000000
H     3.194000000    -0.335000000     3.295000000
O     1.925000000     2.501000000     4.378000000
H     2.354000000     2.141000000     3.601000000
H     2.307000000     2.015000000     5.109000000
O    -2.752000000     5.776000000     1.951000000
H    -2.340000000     6.396000000     2.553000000
H    -2.148000000     5.724000000     1.210000000
O    -5.884000000     0.915000000    -1.265000000
H    -6.104000000     0.586000000    -0.393000000
H    -5.424000000     1.738000000    -1.102000000
O    -3.886000000     3.034000000    -1.523000000
H    -3.649000000     3.531000000    -0.739000000
H    -3.049000000     2.746000000    -1.885000000
O    -2.509000000    -2.443000000    -2.630000000
H    -3.362000000    -2.440000000    -2.196000000
H    -2.352000000    -3.363000000    -2.842000000
O     1.281000000     1.769000000    -4.685000000
H     1.090000000     1.814000000    -3.748000000
H     1.027000000     2.628000000    -5.022000000
O     0.378000000    -2.520000000     3.288000000
H     1.223000000    -2.117000000     3.486000000
H    -0.269000000    -1.875000000     3.574000000
O    -6.680000000    -2.026000000    -1.547000000
H    -6.902000000    -1.123000000    -1.319000000
H    -5.911000000    -2.226000000    -1.013000000
O     3.721000000     0.776000000    -4.206000000
H     2.773000000     0.874000000    -4.302000000
H     4.084000000     1.567000000    -4.606000000
O    -4.414000000     3.739000000     2.737000000
H    -3.758000000     4.391000000     2.491000000
H    -5.252000000     4.147000000     2.515000000
O    -3.108000000    -5.522000000     0.069000000
H    -2.902000000    -5.840000000    -0.810000000
H    -3.895000000    -6.005000000     0.320000000
O    -0.032000000     5.083000000     1.643000000
H     0.314000000     5.258000000     0.768000000
H     0.630000000     5.438000000     2.237000000
O    -0.788000000     2.747000000     3.240000000
H     0.082000000     2.522000000     3.570000000
H    -0.636000000     3.484000000     2.648000000
O    -5.040000000    -2.937000000     0.346000000
H    -4.467000000    -2.693000000     1.073000000
H    -4.655000000    -3.740000000    -0.004000000
O    -1.515000000    -4.758000000    -4.170000000
H    -0.584000000    -4.752000000    -3.947000000
H    -1.532000000    -4.734000000    -5.126000000
O     3.110000000    -2.897000000    -3.456000000
H     3.295000000    -2.264000000    -2.762000000
H     3.654000000    -3.654000000    -3.240000000
O     6.944000000    -5.155000000     1.805000000
H     6.552000000    -4.583000000     1.145000000
H     7.421000000    -5.813000000     1.298000000
O    -5.528000000     4.007000000    -3.599000000
H    -6.247000000     4.576000000    -3.322000000
H    -5.036000000     3.835000000    -2.796000000
O     6.340000000    -2.352000000    -4.457000000
H     5.918000000    -3.208000000    -4.522000000
H     5.782000000    -1.855000000    -3.859000000
O     3.155000000    -4.365000000    -1.085000000
H     2.487000000    -5.051000000    -1.077000000
H     2.840000000    -3.717000000    -0.456000000
O    -6.383000000     3.751000000     0.159000000
H    -6.145000000     3.039000000     0.752000000
H    -7.288000000     3.564000000    -0.090000000
O     1.552000000    -3.958000000     1.252000000
H     0.996000000    -4.720000000     1.089000000
H     0.993000000    -3.354000000     1.740000000
O    -5.617000000     0.351000000    -4.162000000
H    -6.095000000     1.167000000    -4.308000000
H    -5.670000000     0.208000000    -3.217000000
O    -0.866000000    -0.024000000     3.082000000
H    -0.626000000     0.009000000     2.155000000
H    -0.507000000     0.783000000     3.451000000
O     5.179000000    -1.060000000    -2.422000000
H     4.522000000    -0.657000000    -2.989000000
H     4.765000000    -1.090000000    -1.559000000
O    -3.017000000     2.348000000     4.677000000
H    -3.515000000     2.734000000     3.957000000
H    -2.180000000     2.101000000     4.284000000
O    -6.285000000     1.246000000     1.475000000
H    -5.540000000     0.937000000     1.990000000
H    -6.988000000     1.362000000     2.114000000
