158
-3020.19281
C     1.142000000    -0.859000000    -0.133000000
H     1.910000000    -1.627000000    -0.160000000
C     0.205000000    -0.977000000     0.890000000
H     0.326000000    -1.817000000     1.569000000
C    -0.826000000    -0.068000000     0.906000000
H    -1.472000000    -0.167000000     1.738000000
C    -0.928000000     0.910000000    -0.023000000
H    -1.707000000     1.668000000     0.012000000
C    -0.049000000     0.886000000    -1.171000000
H    -0.151000000     1.595000000    -1.989000000
C     1.092000000     0.104000000    -1.127000000
C     2.070000000     0.155000000    -2.259000000
O     2.107000000     1.078000000    -3.054000000
O     2.955000000    -0.679000000    -2.256000000
O     0.235000000     3.280000000    -4.075000000
H     0.038000000     2.857000000    -4.911000000
H     0.952000000     2.762000000    -3.708000000
O     4.507000000     0.145000000     1.777000000
H     3.897000000     0.883000000     1.768000000
H     4.422000000    -0.226000000     2.655000000
O    -5.150000000     1.551000000    -3.828000000
H    -4.250000000     1.263000000    -3.670000000
H    -5.444000000     1.021000000    -4.568000000
O     2.687000000    -0.807000000    -6.884000000
H     3.344000000    -1.143000000    -7.494000000
H     1.849000000    -1.075000000    -7.262000000
O     6.641000000    -1.184000000     0.745000000
H     5.871000000    -0.782000000     1.148000000
H     7.379000000    -0.674000000     1.077000000
O     2.656000000     3.305000000    -6.143000000
H     2.566000000     2.822000000    -6.964000000
H     3.060000000     2.681000000    -5.540000000
O     7.036000000    -0.713000000    -4.362000000
H     6.602000000    -0.752000000    -3.509000000
H     6.912000000    -1.586000000    -4.734000000
O     3.276000000    -6.122000000     2.583000000
H     3.432000000    -5.405000000     3.196000000
H     3.118000000    -5.690000000     1.743000000
O    -4.542000000     3.452000000     1.949000000
H    -4.440000000     2.505000000     1.861000000
H    -4.475000000     3.785000000     1.054000000
O     3.497000000     3.462000000    -2.882000000
H     2.934000000     2.693000000    -2.976000000
H     4.338000000     3.108000000    -2.591000000
O    -0.821000000    -2.475000000     7.597000000
H    -1.704000000    -2.792000000     7.407000000
H    -0.769000000    -1.628000000     7.153000000
O    -4.044000000     0.857000000     4.442000000
H    -4.871000000     0.829000000     3.961000000
H    -3.827000000     1.788000000     4.491000000
O    -3.365000000    -3.332000000     6.201000000
H    -4.143000000    -3.114000000     6.715000000
H    -3.286000000    -4.283000000     6.277000000
O     5.797000000     2.385000000    -1.062000000
H     5.747000000     1.449000000    -1.258000000
H     6.462000000     2.721000000    -1.664000000
O    -0.177000000     2.874000000     5.425000000
H    -0.884000000     3.492000000     5.611000000
H     0.408000000     2.946000000     6.179000000
O     0.543000000    -5.209000000     3.929000000
H    -0.179000000    -4.589000000     3.822000000
H     1.320000000    -4.658000000     4.024000000
O    -2.297000000     2.989000000    -2.443000000
H    -1.516000000     3.449000000    -2.749000000
H    -2.522000000     2.395000000    -3.159000000
O     5.586000000    -0.433000000    -2.166000000
H     5.735000000    -0.913000000    -1.351000000
H     4.682000000    -0.123000000    -2.100000000
O    -4.675000000    -2.188000000    -1.084000000
H    -3.943000000    -1.940000000    -1.648000000
H    -4.656000000    -3.145000000    -1.075000000
O    -2.523000000     0.897000000    -3.996000000
H    -2.380000000     0.078000000    -3.522000000
H    -1.834000000     0.914000000    -4.660000000
O    -1.237000000     5.596000000    -4.154000000
H    -0.818000000     4.739000000    -4.238000000
H    -1.430000000     5.858000000    -5.055000000
O     0.596000000     5.141000000    -6.234000000
H     1.287000000     4.529000000    -5.981000000
H     0.187000000     4.736000000    -6.999000000
O     1.116000000     2.973000000     2.559000000
H     0.629000000     2.740000000     1.768000000
H     0.508000000     3.511000000     3.066000000
O     3.146000000    -5.425000000    -0.097000000
H     2.916000000    -4.571000000    -0.463000000
H     3.845000000    -5.749000000    -0.665000000
O    -1.176000000    -2.338000000     4.039000000
H    -1.852000000    -2.392000000     4.714000000
H    -1.113000000    -1.404000000     3.837000000
O     6.201000000     1.403000000    -6.055000000
H     5.305000000     1.273000000    -5.744000000
H     6.689000000     0.662000000    -5.697000000
O    -1.833000000    -1.570000000    -2.670000000
H    -1.788000000    -2.517000000    -2.802000000
H    -0.953000000    -1.325000000    -2.385000000
O    -4.413000000     3.679000000    -0.875000000
H    -4.891000000     2.867000000    -0.705000000
H    -3.684000000     3.414000000    -1.437000000
O    -1.287000000    -5.293000000     0.307000000
H    -0.545000000    -5.894000000     0.242000000
H    -1.484000000    -5.057000000    -0.600000000
O    -3.112000000     3.520000000     4.565000000
H    -2.840000000     4.356000000     4.943000000
H    -3.000000000     3.635000000     3.622000000
O     3.970000000    -2.346000000    -4.571000000
H     3.633000000    -1.964000000    -5.381000000
H     3.618000000    -1.787000000    -3.878000000
O     4.035000000    -2.982000000    -1.129000000
H     3.753000000    -2.225000000    -1.641000000
H     4.804000000    -3.314000000    -1.593000000
O    -2.640000000    -4.149000000     2.441000000
H    -2.119000000    -3.472000000     2.873000000
H    -2.098000000    -4.436000000     1.706000000
O     4.208000000    -2.886000000     1.716000000
H     4.034000000    -2.831000000     0.776000000
H     5.009000000    -2.378000000     1.841000000
O    -4.508000000     0.613000000     0.643000000
H    -4.023000000    -0.192000000     0.461000000
H    -5.256000000     0.582000000     0.046000000
O     2.645000000     1.580000000     5.117000000
H     1.826000000     1.767000000     4.658000000
H     2.865000000     2.402000000     5.557000000
O    -1.020000000    -0.076000000     6.815000000
H    -0.957000000     0.052000000     5.869000000
H    -1.958000000    -0.023000000     7.003000000
O     2.120000000     4.846000000    -0.877000000
H     2.707000000     4.651000000    -0.147000000
H     2.541000000     4.444000000    -1.637000000
O     3.804000000     1.135000000    -5.138000000
H     3.401000000     1.176000000    -4.270000000
H     3.250000000     0.530000000    -5.631000000
O    -0.403000000     4.590000000     0.426000000
H     0.471000000     4.795000000     0.094000000
H    -0.869000000     4.234000000    -0.330000000
O    -5.493000000    -1.611000000     4.740000000
H    -6.248000000    -1.579000000     5.328000000
H    -4.792000000    -1.177000000     5.226000000
O     0.993000000    -4.710000000    -4.160000000
H     1.129000000    -5.353000000    -4.856000000
H     1.863000000    -4.575000000    -3.785000000
O    -0.062000000     1.751000000    -6.438000000
H    -0.531000000     0.926000000    -6.571000000
H     0.784000000     1.617000000    -6.866000000
O    -5.196000000    -3.863000000     3.277000000
H    -4.286000000    -3.881000000     2.981000000
H    -5.264000000    -3.059000000     3.793000000
O    -1.420000000     0.544000000     4.228000000
H    -2.369000000     0.645000000     4.294000000
H    -1.076000000     1.429000000     4.354000000
O    -7.557000000    -1.559000000     1.892000000
H    -7.216000000    -0.991000000     1.201000000
H    -6.785000000    -2.011000000     2.233000000
O     4.788000000    -4.763000000    -3.597000000
H     4.458000000    -3.952000000    -3.984000000
H     5.122000000    -5.264000000    -4.340000000
O     2.417000000    -3.302000000     4.050000000
H     2.522000000    -2.363000000     4.204000000
H     2.751000000    -3.438000000     3.164000000
