158
-3041.95866
C     1.203000000     0.290000000     0.824000000
H     1.961000000     0.576000000     1.549000000
C     0.001000000    -0.221000000     1.317000000
H    -0.128000000    -0.326000000     2.391000000
C    -1.086000000    -0.443000000     0.422000000
H    -2.101000000    -0.645000000     0.699000000
C    -0.889000000    -0.256000000    -0.953000000
H    -1.778000000    -0.449000000    -1.548000000
C     0.379000000     0.273000000    -1.434000000
H     0.554000000     0.536000000    -2.474000000
C     1.385000000     0.590000000    -0.548000000
C     2.719000000     1.149000000    -0.949000000
O     3.631000000     1.179000000    -0.145000000
O     2.973000000     1.413000000    -2.088000000
O    -2.809000000     0.313000000     5.903000000
H    -3.469000000    -0.320000000     6.185000000
H    -3.274000000     1.150000000     5.880000000
O     7.937000000    -0.501000000     1.588000000
H     6.993000000    -0.414000000     1.454000000
H     8.326000000    -0.109000000     0.806000000
O     5.221000000    -0.630000000     0.873000000
H     4.695000000     0.142000000     0.663000000
H     5.123000000    -1.201000000     0.111000000
O    -0.373000000     1.329000000    -4.693000000
H     0.254000000     2.015000000    -4.926000000
H    -1.064000000     1.789000000    -4.217000000
O    -5.443000000    -0.400000000    -2.327000000
H    -6.377000000    -0.334000000    -2.128000000
H    -5.133000000    -1.124000000    -1.783000000
O    -4.694000000     3.457000000    -2.032000000
H    -4.943000000     2.970000000    -1.247000000
H    -5.519000000     3.604000000    -2.495000000
O     5.822000000     0.931000000    -1.782000000
H     6.032000000     1.812000000    -2.092000000
H     5.055000000     1.051000000    -1.223000000
O     1.085000000     0.550000000     4.678000000
H     1.522000000     1.309000000     5.066000000
H     1.784000000    -0.093000000     4.558000000
O    -3.340000000     1.190000000     2.315000000
H    -2.486000000     1.589000000     2.482000000
H    -3.821000000     1.851000000     1.817000000
O     0.494000000    -3.184000000     3.017000000
H     1.249000000    -3.466000000     2.501000000
H    -0.263000000    -3.416000000     2.480000000
O    -1.097000000     2.265000000     3.659000000
H    -1.528000000     2.647000000     4.424000000
H    -0.557000000     1.560000000     4.016000000
O     5.793000000     2.768000000    -5.144000000
H     5.322000000     2.382000000    -5.882000000
H     6.709000000     2.775000000    -5.421000000
O    -1.752000000    -4.729000000     2.006000000
H    -1.305000000    -4.891000000     1.175000000
H    -1.723000000    -5.570000000     2.462000000
O     4.775000000     2.957000000     1.235000000
H     4.250000000     2.314000000     0.758000000
H     4.910000000     3.668000000     0.609000000
O     2.378000000     6.217000000    -4.257000000
H     3.120000000     5.908000000    -4.777000000
H     2.327000000     5.603000000    -3.524000000
O     2.181000000     4.044000000    -2.378000000
H     2.043000000     3.099000000    -2.307000000
H     1.311000000     4.423000000    -2.254000000
O    -0.468000000     3.979000000    -1.089000000
H    -1.230000000     4.039000000    -0.513000000
H    -0.589000000     3.155000000    -1.561000000
O     2.075000000     2.518000000    -5.565000000
H     2.447000000     1.722000000    -5.945000000
H     2.465000000     2.571000000    -4.692000000
O     5.924000000    -1.957000000    -1.966000000
H     6.161000000    -1.074000000    -2.250000000
H     6.619000000    -2.515000000    -2.313000000
O     4.994000000     3.871000000    -2.690000000
H     5.219000000     3.339000000    -3.453000000
H     4.041000000     3.951000000    -2.727000000
O     1.624000000     4.627000000     0.994000000
H     2.363000000     5.227000000     1.096000000
H     1.519000000     4.536000000     0.047000000
O     5.084000000     1.212000000     4.855000000
H     4.439000000     1.108000000     5.555000000
H     5.228000000     0.323000000     4.529000000
O     3.066000000     0.163000000    -6.163000000
H     3.304000000    -0.220000000    -5.319000000
H     2.651000000    -0.553000000    -6.643000000
O    -4.188000000    -0.828000000     3.663000000
H    -3.483000000    -1.053000000     4.270000000
H    -3.836000000    -0.107000000     3.142000000
O     0.506000000    -3.162000000    -0.736000000
H     0.055000000    -2.347000000    -0.518000000
H     0.617000000    -3.128000000    -1.686000000
O    -5.052000000     3.293000000     0.966000000
H    -5.763000000     3.076000000     1.569000000
H    -4.823000000     4.197000000     1.181000000
O     1.179000000    -2.547000000    -3.566000000
H     0.257000000    -2.331000000    -3.703000000
H     1.627000000    -1.701000000    -3.579000000
O    -3.243000000     0.177000000    -3.549000000
H    -4.086000000     0.147000000    -3.096000000
H    -2.980000000     1.096000000    -3.505000000
O     3.285000000    -1.908000000     4.695000000
H     2.510000000    -2.442000000     4.872000000
H     3.726000000    -1.837000000     5.542000000
O    -4.289000000    -4.567000000    -2.772000000
H    -4.826000000    -4.125000000    -3.430000000
H    -4.366000000    -4.019000000    -1.992000000
O     3.076000000     2.828000000     3.416000000
H     3.722000000     2.202000000     3.743000000
H     3.223000000     2.853000000     2.471000000
O    -3.798000000    -3.648000000     5.469000000
H    -3.203000000    -2.955000000     5.183000000
H    -3.228000000    -4.296000000     5.885000000
O     7.361000000     2.805000000     0.906000000
H     7.839000000     2.203000000     1.478000000
H     6.490000000     2.866000000     1.298000000
O     5.608000000    -1.448000000     3.380000000
H     5.364000000    -1.105000000     2.520000000
H     4.813000000    -1.871000000     3.703000000
O    -4.648000000    -0.068000000    -5.919000000
H    -5.470000000    -0.245000000    -5.463000000
H    -3.998000000     0.009000000    -5.221000000
O    -4.788000000    -5.954000000     3.092000000
H    -4.691000000    -5.016000000     2.929000000
H    -5.242000000    -6.286000000     2.318000000
O    -0.571000000    -5.594000000    -0.200000000
H     0.087000000    -4.951000000    -0.464000000
H    -0.877000000    -5.976000000    -1.022000000
O     0.347000000    -4.705000000     5.320000000
H    -0.543000000    -4.730000000     5.672000000
H     0.383000000    -3.891000000     4.817000000
O    -1.064000000    -1.494000000    -4.138000000
H    -1.807000000    -1.216000000    -3.603000000
H    -0.794000000    -0.703000000    -4.603000000
O    -4.632000000    -2.394000000    -0.531000000
H    -4.570000000    -2.714000000     0.369000000
H    -3.795000000    -1.958000000    -0.688000000
O    -3.817000000    -2.832000000     1.964000000
H    -3.903000000    -2.314000000     2.764000000
H    -2.954000000    -3.239000000     2.033000000
O     2.725000000    -3.119000000     1.631000000
H     3.375000000    -3.474000000     1.024000000
H     2.061000000    -2.724000000     1.065000000
O    -1.516000000    -2.189000000     4.706000000
H    -0.782000000    -2.430000000     4.141000000
H    -1.227000000    -1.391000000     5.148000000
O    -7.201000000    -3.638000000    -0.253000000
H    -7.561000000    -4.029000000    -1.049000000
H    -6.544000000    -3.017000000    -0.568000000
O     3.412000000    -0.454000000    -3.638000000
H     4.356000000    -0.548000000    -3.512000000
H     3.168000000     0.281000000    -3.076000000
O    -0.940000000     4.787000000     1.890000000
H    -0.892000000     4.173000000     2.623000000
H    -0.038000000     4.861000000     1.578000000
O    -2.405000000     2.728000000    -3.367000000
H    -2.818000000     3.113000000    -4.140000000
H    -2.956000000     3.008000000    -2.636000000
O    -6.869000000    -1.411000000     4.274000000
H    -7.451000000    -1.223000000     3.538000000
H    -5.995000000    -1.198000000     3.949000000
