158
-3000.56112
C     1.393000000    -0.372000000     0.199000000
H     2.343000000    -0.836000000     0.450000000
C     0.506000000    -1.191000000    -0.464000000
H     0.788000000    -2.173000000    -0.834000000
C    -0.766000000    -0.688000000    -0.619000000
H    -1.536000000    -1.291000000    -1.122000000
C    -1.193000000     0.530000000    -0.094000000
H    -2.216000000     0.893000000    -0.153000000
C    -0.277000000     1.324000000     0.628000000
H    -0.555000000     2.278000000     1.070000000
C     1.058000000     0.863000000     0.750000000
C     2.095000000     1.747000000     1.453000000
O     3.262000000     1.369000000     1.497000000
O     1.885000000     2.907000000     1.704000000
O     1.462000000     3.030000000    -1.935000000
H     0.990000000     2.883000000    -1.115000000
H     2.212000000     3.570000000    -1.686000000
O    -4.033000000    -0.254000000    -2.461000000
H    -3.294000000     0.319000000    -2.667000000
H    -4.279000000    -0.639000000    -3.302000000
O     3.902000000    -0.808000000     2.944000000
H     3.604000000    -0.118000000     2.350000000
H     4.856000000    -0.798000000     2.863000000
O    -0.024000000     2.729000000     3.592000000
H    -0.883000000     3.094000000     3.382000000
H     0.518000000     2.938000000     2.831000000
O    -1.842000000    -3.804000000     2.729000000
H    -2.773000000    -3.976000000     2.587000000
H    -1.404000000    -4.607000000     2.445000000
O     5.565000000    -3.883000000     0.969000000
H     6.497000000    -4.069000000     1.075000000
H     5.537000000    -2.990000000     0.624000000
O     0.579000000    -2.107000000    -6.594000000
H     0.809000000    -1.887000000    -5.691000000
H     1.316000000    -1.784000000    -7.114000000
O     4.870000000     1.216000000     5.791000000
H     3.995000000     0.881000000     5.985000000
H     4.867000000     1.358000000     4.844000000
O    -0.789000000    -4.458000000    -5.513000000
H    -0.089000000    -4.503000000    -4.862000000
H    -0.527000000    -3.747000000    -6.098000000
O     1.600000000    -5.002000000     1.825000000
H     2.104000000    -5.001000000     1.012000000
H     0.690000000    -5.104000000     1.544000000
O    -4.182000000    -4.685000000    -2.855000000
H    -3.259000000    -4.591000000    -2.620000000
H    -4.577000000    -5.124000000    -2.101000000
O    -1.674000000    -1.023000000     2.602000000
H    -1.587000000    -1.965000000     2.748000000
H    -1.457000000    -0.903000000     1.677000000
O     5.208000000     1.975000000     3.302000000
H     5.507000000     2.877000000     3.185000000
H     4.387000000     1.929000000     2.813000000
O    -6.326000000     0.344000000    -1.051000000
H    -7.000000000    -0.206000000    -1.451000000
H    -5.499000000    -0.035000000    -1.348000000
O    -2.005000000     6.663000000     1.277000000
H    -1.282000000     7.174000000     0.915000000
H    -2.598000000     6.529000000     0.538000000
O    -4.367000000    -3.970000000     2.083000000
H    -5.022000000    -3.657000000     1.460000000
H    -4.587000000    -3.530000000     2.904000000
O     1.083000000    -2.397000000     3.039000000
H     1.851000000    -2.842000000     2.681000000
H     0.473000000    -3.104000000     3.249000000
O     4.394000000     1.025000000    -1.060000000
H     5.320000000     1.256000000    -1.130000000
H     4.154000000     1.267000000    -0.165000000
O     3.376000000     4.140000000    -0.205000000
H     4.219000000     4.529000000     0.028000000
H     3.055000000     3.756000000     0.612000000
O     2.360000000     0.691000000     4.743000000
H     1.684000000     0.194000000     5.203000000
H     2.571000000     0.157000000     3.976000000
O     4.362000000     2.656000000    -3.254000000
H     4.853000000     2.032000000    -3.789000000
H     4.177000000     2.183000000    -2.443000000
O     1.142000000    -1.372000000    -4.020000000
H     2.083000000    -1.486000000    -3.890000000
H     0.892000000    -0.700000000    -3.387000000
O     3.314000000     7.464000000     1.566000000
H     3.012000000     7.952000000     0.799000000
H     2.849000000     6.628000000     1.515000000
O    -1.667000000    -4.129000000    -2.060000000
H    -1.218000000    -4.960000000    -1.901000000
H    -1.104000000    -3.471000000    -1.653000000
O    -0.615000000     1.644000000    -2.991000000
H    -0.836000000     1.263000000    -2.141000000
H     0.160000000     2.178000000    -2.820000000
O    -5.088000000     2.903000000    -1.747000000
H    -5.681000000     2.163000000    -1.881000000
H    -5.004000000     3.302000000    -2.613000000
O    -2.080000000     3.959000000     2.331000000
H    -2.841000000     3.565000000     1.905000000
H    -1.961000000     4.796000000     1.881000000
O    -0.104000000     5.129000000    -3.547000000
H    -0.580000000     5.750000000    -2.997000000
H     0.195000000     4.451000000    -2.940000000
O    -0.699000000     0.374000000     4.827000000
H    -0.830000000    -0.128000000     4.023000000
H    -0.267000000     1.178000000     4.540000000
O    -4.754000000    -0.633000000    -5.341000000
H    -4.593000000     0.212000000    -5.761000000
H    -4.314000000    -1.269000000    -5.905000000
O     1.075000000    -4.663000000    -1.884000000
H     1.220000000    -4.837000000    -2.814000000
H     1.955000000    -4.591000000    -1.514000000
O     3.087000000     5.360000000    -2.773000000
H     2.866000000     5.311000000    -1.843000000
H     3.673000000     4.617000000    -2.920000000
O     3.426000000    -2.609000000     4.985000000
H     3.318000000    -2.096000000     4.184000000
H     3.813000000    -3.434000000     4.691000000
O     1.287000000     3.231000000     5.877000000
H     2.222000000     3.036000000     5.952000000
H     1.060000000     2.977000000     4.983000000
O     3.811000000     4.884000000     5.041000000
H     4.674000000     4.838000000     4.630000000
H     3.208000000     5.045000000     4.315000000
O     7.475000000     0.311000000     4.229000000
H     7.376000000    -0.466000000     3.679000000
H     6.879000000     0.954000000     3.845000000
O     5.817000000     4.897000000     3.130000000
H     5.528000000     5.538000000     2.481000000
H     6.599000000     4.501000000     2.744000000
O    -1.169000000     0.804000000    -5.680000000
H    -0.763000000     0.964000000    -4.828000000
H    -0.852000000    -0.063000000    -5.936000000
O    -4.120000000     0.383000000     2.694000000
H    -4.775000000    -0.281000000     2.478000000
H    -3.281000000    -0.049000000     2.536000000
O     3.231000000    -4.324000000    -0.409000000
H     3.924000000    -4.588000000    -1.014000000
H     3.642000000    -3.670000000     0.156000000
O    -3.519000000    -4.936000000    -5.585000000
H    -3.856000000    -5.000000000    -4.691000000
H    -2.594000000    -4.716000000    -5.476000000
O     7.059000000    -1.423000000     2.251000000
H     7.534000000    -2.253000000     2.207000000
H     6.678000000    -1.319000000     1.379000000
O     5.363000000    -1.520000000    -0.174000000
H     4.871000000    -0.732000000    -0.405000000
H     5.770000000    -1.798000000    -0.995000000
O     2.008000000     5.231000000     2.778000000
H     2.179000000     4.356000000     2.428000000
H     1.068000000     5.237000000     2.957000000
O    -4.165000000     2.703000000     0.820000000
H    -4.713000000     2.672000000     0.036000000
H    -4.404000000     1.916000000     1.310000000
O     3.677000000    -2.359000000    -4.044000000
H     3.710000000    -3.306000000    -4.181000000
H     4.521000000    -2.041000000    -4.365000000
O    -2.118000000     3.878000000    -0.696000000
H    -2.582000000     4.433000000    -1.324000000
H    -2.769000000     3.687000000    -0.020000000
O     1.011000000    -7.083000000    -0.276000000
H     1.261000000    -6.288000000    -0.746000000
H     1.816000000    -7.371000000     0.154000000
