158
-3032.81740
C     1.132000000    -0.617000000     0.754000000
H     1.889000000    -1.223000000     1.246000000
C    -0.022000000    -1.206000000     0.271000000
H    -0.146000000    -2.262000000     0.497000000
C    -1.087000000    -0.547000000    -0.414000000
H    -2.002000000    -1.035000000    -0.672000000
C    -0.933000000     0.813000000    -0.737000000
H    -1.672000000     1.264000000    -1.394000000
C     0.250000000     1.395000000    -0.172000000
H     0.481000000     2.430000000    -0.409000000
C     1.298000000     0.697000000     0.464000000
C     2.551000000     1.437000000     1.045000000
O     3.294000000     0.806000000     1.740000000
O     2.870000000     2.505000000     0.575000000
O     3.390000000     2.802000000    -4.086000000
H     3.893000000     3.609000000    -4.195000000
H     3.669000000     2.458000000    -3.238000000
O    -4.124000000    -0.103000000    -4.596000000
H    -3.297000000     0.103000000    -5.031000000
H    -4.174000000    -1.058000000    -4.616000000
O     3.782000000    -1.066000000     3.473000000
H     3.540000000    -0.398000000     2.831000000
H     4.728000000    -0.965000000     3.578000000
O    -1.626000000     0.733000000    -5.563000000
H    -2.042000000     1.070000000    -6.357000000
H    -0.989000000     1.405000000    -5.322000000
O    -0.118000000    -5.265000000     4.941000000
H    -0.466000000    -4.806000000     4.176000000
H    -0.758000000    -5.953000000     5.119000000
O    -5.143000000     3.577000000    -2.225000000
H    -5.603000000     4.213000000    -1.677000000
H    -5.801000000     3.284000000    -2.855000000
O     2.151000000    -5.157000000     2.106000000
H     2.471000000    -5.943000000     2.548000000
H     2.481000000    -5.234000000     1.211000000
O     3.258000000     1.947000000     4.256000000
H     3.366000000     1.504000000     3.415000000
H     2.400000000     2.367000000     4.198000000
O    -1.247000000    -4.321000000     2.232000000
H    -0.505000000    -4.879000000     2.001000000
H    -2.018000000    -4.825000000     1.970000000
O     5.362000000    -3.937000000     2.469000000
H     6.187000000    -4.288000000     2.134000000
H     5.245000000    -3.112000000     1.999000000
O    -0.856000000    -1.256000000    -3.512000000
H    -0.658000000    -0.719000000    -2.744000000
H    -1.094000000    -0.624000000    -4.191000000
O     1.516000000    -2.843000000     3.534000000
H     2.299000000    -2.351000000     3.286000000
H     1.596000000    -3.673000000     3.065000000
O     6.875000000     1.612000000    -0.813000000
H     6.647000000     1.820000000     0.094000000
H     7.830000000     1.553000000    -0.812000000
O    -1.825000000     1.034000000     2.913000000
H    -1.690000000     0.089000000     2.839000000
H    -1.040000000     1.419000000     2.525000000
O     5.585000000     2.365000000     1.829000000
H     5.247000000     3.248000000     1.683000000
H     4.813000000     1.801000000     1.778000000
O    -3.461000000     3.876000000     1.686000000
H    -3.446000000     4.711000000     1.219000000
H    -4.037000000     4.030000000     2.435000000
O    -6.979000000    -3.052000000    -1.764000000
H    -6.281000000    -3.363000000    -2.340000000
H    -7.085000000    -3.750000000    -1.118000000
O    -4.582000000    -2.714000000     1.346000000
H    -4.149000000    -2.758000000     2.199000000
H    -5.391000000    -2.231000000     1.514000000
O    -3.831000000    -4.831000000    -0.472000000
H    -3.454000000    -4.190000000    -1.074000000
H    -4.248000000    -4.304000000     0.210000000
O    -0.976000000    -2.001000000     3.644000000
H    -0.049000000    -2.198000000     3.774000000
H    -1.234000000    -2.541000000     2.897000000
O     4.041000000     1.377000000    -1.759000000
H     4.938000000     1.172000000    -1.495000000
H     3.606000000     1.636000000    -0.947000000
O     2.892000000     4.787000000    -0.701000000
H     3.606000000     4.699000000    -1.332000000
H     2.870000000     3.945000000    -0.246000000
O     3.537000000    -2.256000000     5.902000000
H     3.704000000    -1.944000000     5.013000000
H     2.702000000    -2.721000000     5.840000000
O    -6.895000000    -0.556000000    -0.328000000
H    -6.226000000     0.007000000    -0.718000000
H    -6.783000000    -1.399000000    -0.766000000
O     3.142000000     7.175000000     2.436000000
H     3.246000000     7.350000000     1.500000000
H     2.978000000     6.234000000     2.487000000
O    -2.115000000    -3.758000000    -3.285000000
H    -1.613000000    -4.195000000    -2.598000000
H    -1.740000000    -2.878000000    -3.333000000
O     3.622000000    -1.355000000    -1.732000000
H     2.759000000    -1.387000000    -1.318000000
H     3.820000000    -0.421000000    -1.802000000
O    -2.456000000     3.985000000    -1.389000000
H    -2.427000000     4.834000000    -0.949000000
H    -3.389000000     3.786000000    -1.463000000
O    -5.675000000     1.514000000     1.750000000
H    -5.143000000     1.739000000     0.987000000
H    -6.221000000     0.786000000     1.454000000
O     0.883000000     3.157000000     3.502000000
H     0.390000000     3.387000000     2.715000000
H     0.308000000     3.407000000     4.226000000
O     0.301000000     5.074000000    -1.499000000
H     1.097000000     4.876000000    -1.005000000
H    -0.275000000     5.500000000    -0.865000000
O    -4.907000000    -3.886000000    -3.413000000
H    -4.002000000    -3.583000000    -3.489000000
H    -5.354000000    -3.497000000    -4.165000000
O    -5.586000000    -0.575000000     3.902000000
H    -6.491000000    -0.860000000     4.027000000
H    -5.646000000     0.146000000     3.274000000
O     0.571000000    -5.681000000    -1.772000000
H     1.117000000    -5.591000000    -2.553000000
H     1.139000000    -5.409000000    -1.050000000
O     4.692000000     0.726000000     6.602000000
H     4.987000000     1.637000000     6.616000000
H     4.115000000     0.673000000     5.840000000
O     4.828000000     4.842000000     4.577000000
H     5.569000000     4.313000000     4.279000000
H     4.124000000     4.635000000     3.964000000
O     5.728000000     4.796000000    -1.665000000
H     5.858000000     5.250000000    -0.832000000
H     6.302000000     4.033000000    -1.615000000
O     6.540000000     0.360000000     3.620000000
H     7.155000000    -0.054000000     3.015000000
H     6.227000000     1.134000000     3.152000000
O     0.864000000     2.043000000    -4.417000000
H     1.785000000     2.249000000    -4.260000000
H     0.817000000     1.089000000    -4.353000000
O     2.465000000     7.557000000    -0.200000000
H     2.909000000     8.058000000    -0.884000000
H     2.603000000     6.642000000    -0.447000000
O    -4.816000000     1.294000000    -1.050000000
H    -4.979000000     1.818000000    -1.834000000
H    -3.919000000     1.513000000    -0.798000000
O     5.012000000    -3.709000000    -0.802000000
H     4.803000000    -2.867000000    -1.205000000
H     5.968000000    -3.727000000    -0.766000000
O     3.019000000     4.404000000     2.497000000
H     2.859000000     3.927000000     1.683000000
H     2.283000000     4.167000000     3.062000000
O    -0.751000000     3.513000000     1.541000000
H    -1.641000000     3.316000000     1.834000000
H    -0.830000000     3.628000000     0.594000000
O    -3.240000000    -6.611000000     1.446000000
H    -3.962000000    -7.239000000     1.451000000
H    -3.566000000    -5.875000000     0.926000000
O    -1.107000000     3.843000000    -3.914000000
H    -1.514000000     3.750000000    -3.052000000
H    -0.302000000     3.328000000    -3.855000000
O    -0.330000000     6.748000000     0.945000000
H     0.283000000     7.410000000     0.624000000
H     0.100000000     6.377000000     1.716000000
O    -6.671000000     1.371000000    -3.603000000
H    -7.119000000     0.533000000    -3.488000000
H    -5.838000000     1.143000000    -4.015000000
