158
-3044.51613
C     0.923000000    -0.648000000     0.944000000
H     1.654000000    -1.228000000     1.500000000
C    -0.199000000    -1.242000000     0.374000000
H    -0.574000000    -2.250000000     0.533000000
C    -0.983000000    -0.513000000    -0.469000000
H    -1.815000000    -1.128000000    -0.924000000
C    -0.676000000     0.805000000    -0.783000000
H    -1.198000000     1.424000000    -1.508000000
C     0.365000000     1.428000000    -0.143000000
H     0.761000000     2.397000000    -0.438000000
C     1.213000000     0.713000000     0.714000000
C     2.433000000     1.275000000     1.379000000
O     2.954000000     0.698000000     2.326000000
O     2.941000000     2.376000000     1.021000000
O     2.293000000     2.964000000    -3.571000000
H     3.024000000     3.503000000    -3.873000000
H     2.699000000     2.298000000    -3.017000000
O     4.464000000    -1.377000000     2.983000000
H     4.019000000    -0.575000000     2.710000000
H     4.235000000    -1.477000000     3.907000000
O    -4.944000000     1.137000000    -5.630000000
H    -5.123000000     1.671000000    -6.404000000
H    -4.121000000     1.485000000    -5.285000000
O     0.581000000    -4.346000000     2.191000000
H     0.486000000    -5.298000000     2.182000000
H     1.036000000    -4.143000000     1.373000000
O     1.715000000     0.481000000     4.606000000
H     2.241000000     0.475000000     3.806000000
H     0.897000000     0.050000000     4.358000000
O    -2.688000000    -6.555000000     1.716000000
H    -2.020000000    -6.070000000     2.201000000
H    -2.269000000    -7.389000000     1.501000000
O     4.463000000    -3.405000000     1.237000000
H     4.558000000    -3.049000000     2.121000000
H     5.305000000    -3.231000000     0.817000000
O     6.087000000     3.386000000     5.489000000
H     5.210000000     3.142000000     5.194000000
H     6.498000000     2.555000000     5.731000000
O     6.426000000     0.252000000     4.945000000
H     6.401000000    -0.705000000     4.928000000
H     5.533000000     0.519000000     4.727000000
O    -3.604000000    -0.425000000    -3.638000000
H    -3.909000000    -0.187000000    -2.763000000
H    -4.352000000    -0.247000000    -4.209000000
O     1.646000000    -2.671000000     4.119000000
H     0.974000000    -1.993000000     4.186000000
H     1.349000000    -3.233000000     3.403000000
O     5.704000000    -0.290000000    -1.427000000
H     5.586000000    -0.552000000    -0.514000000
H     6.427000000     0.337000000    -1.405000000
O    -3.554000000    -0.622000000     1.734000000
H    -2.722000000    -0.611000000     2.207000000
H    -3.382000000    -0.124000000     0.935000000
O     5.103000000     2.220000000     3.221000000
H     5.084000000     3.156000000     3.019000000
H     4.370000000     1.853000000     2.728000000
O     1.214000000     5.354000000     5.291000000
H     1.582000000     4.715000000     4.679000000
H     0.585000000     5.851000000     4.768000000
O    -3.435000000     2.997000000    -4.221000000
H    -2.553000000     2.977000000    -4.592000000
H    -3.319000000     3.368000000    -3.347000000
O    -4.550000000    -2.793000000     0.253000000
H    -4.037000000    -2.035000000     0.535000000
H    -5.443000000    -2.458000000     0.164000000
O    -2.918000000    -4.410000000    -1.127000000
H    -2.737000000    -3.688000000    -1.730000000
H    -3.736000000    -4.161000000    -0.696000000
O    -2.098000000    -2.802000000     2.784000000
H    -2.951000000    -3.136000000     2.506000000
H    -1.464000000    -3.358000000     2.332000000
O     3.369000000     1.288000000    -1.583000000
H     4.172000000     0.767000000    -1.592000000
H     3.281000000     1.575000000    -0.674000000
O     2.707000000     4.252000000    -0.820000000
H     3.298000000     4.166000000    -1.568000000
H     3.033000000     3.617000000    -0.183000000
O     0.349000000    -2.948000000    -4.586000000
H     1.046000000    -2.328000000    -4.795000000
H     0.759000000    -3.809000000    -4.675000000
O    -6.741000000    -2.686000000    -1.669000000
H    -6.900000000    -2.538000000    -2.601000000
H    -6.201000000    -3.476000000    -1.641000000
O    -2.419000000    -2.832000000    -3.273000000
H    -1.607000000    -2.852000000    -3.781000000
H    -2.837000000    -2.008000000    -3.523000000
O     1.760000000    -0.831000000    -2.258000000
H     1.025000000    -0.688000000    -1.662000000
H     2.305000000    -0.050000000    -2.159000000
O    -4.790000000    -2.657000000    -5.891000000
H    -5.372000000    -2.062000000    -6.365000000
H    -3.946000000    -2.205000000    -5.876000000
O    -2.642000000     4.804000000    -1.584000000
H    -3.448000000     4.624000000    -1.099000000
H    -2.749000000     5.701000000    -1.901000000
O    -1.919000000     2.273000000     1.892000000
H    -1.323000000     1.719000000     1.389000000
H    -1.595000000     2.219000000     2.791000000
O    -1.685000000    -1.862000000    -6.374000000
H    -1.092000000    -1.931000000    -5.626000000
H    -1.225000000    -2.308000000    -7.086000000
O    -0.499000000    -1.141000000     4.111000000
H    -1.129000000    -1.666000000     3.616000000
H    -1.040000000    -0.540000000     4.624000000
O     0.329000000     4.984000000    -1.922000000
H     0.956000000     4.755000000    -1.236000000
H    -0.528000000     4.851000000    -1.517000000
O    -6.254000000     0.100000000     2.349000000
H    -5.321000000    -0.062000000     2.211000000
H    -6.568000000     0.424000000     1.504000000
O     0.877000000    -6.770000000     0.149000000
H     1.149000000    -6.794000000    -0.768000000
H     1.030000000    -5.865000000     0.421000000
O     3.969000000    -0.461000000     5.836000000
H     3.177000000    -0.113000000     5.425000000
H     3.713000000    -0.630000000     6.742000000
O     4.277000000     5.081000000     2.691000000
H     3.970000000     5.844000000     2.202000000
H     3.479000000     4.683000000     3.039000000
O     5.654000000     4.582000000    -0.679000000
H     6.023000000     5.460000000    -0.591000000
H     5.037000000     4.508000000     0.050000000
O     0.691000000     0.937000000    -4.266000000
H     1.220000000     1.657000000    -3.920000000
H     1.113000000     0.147000000    -3.929000000
O    -4.670000000    -4.530000000     2.995000000
H    -5.480000000    -4.057000000     2.805000000
H    -4.345000000    -4.802000000     2.137000000
O     2.531000000     6.439000000     0.950000000
H     2.584000000     7.132000000     0.292000000
H     2.568000000     5.626000000     0.446000000
O    -3.875000000     0.861000000    -0.645000000
H    -3.362000000     1.666000000    -0.715000000
H    -4.742000000     1.154000000    -0.363000000
O     2.100000000    -4.162000000     0.111000000
H     2.087000000    -3.973000000    -0.828000000
H     3.004000000    -3.992000000     0.377000000
O    -4.318000000     3.397000000     2.172000000
H    -4.529000000     2.966000000     3.000000000
H    -3.421000000     3.124000000     1.981000000
O    -2.531000000    -5.685000000    -4.190000000
H    -1.639000000    -5.631000000    -4.532000000
H    -2.533000000    -5.099000000    -3.433000000
O     2.911000000    -3.192000000    -2.326000000
H     2.513000000    -2.322000000    -2.324000000
H     3.839000000    -3.033000000    -2.155000000
O     1.860000000     4.036000000     3.065000000
H     2.287000000     3.625000000     2.313000000
H     1.100000000     4.484000000     2.694000000
O    -0.239000000     5.028000000     1.403000000
H    -0.379000000     5.864000000     0.959000000
H    -1.121000000     4.683000000     1.547000000
O    -0.619000000     3.402000000    -4.445000000
H    -0.161000000     3.918000000    -3.782000000
H    -0.102000000     2.600000000    -4.524000000
O    -2.718000000    -7.192000000    -1.484000000
H    -2.551000000    -6.251000000    -1.425000000
H    -2.650000000    -7.504000000    -0.582000000
