158
-3040.20310
C     1.008000000     0.444000000     0.884000000
H     1.867000000     0.767000000     1.466000000
C     1.103000000    -0.608000000     0.060000000
H     2.037000000    -1.159000000    -0.016000000
C     0.065000000    -0.983000000    -0.734000000
H     0.130000000    -1.801000000    -1.432000000
C    -1.088000000    -0.233000000    -0.769000000
H    -1.874000000    -0.627000000    -1.408000000
C    -1.212000000     0.864000000     0.064000000
H    -2.076000000     1.489000000     0.273000000
C    -0.110000000     1.253000000     0.847000000
C    -0.194000000     2.432000000     1.810000000
O     0.889000000     2.738000000     2.342000000
O    -1.119000000     3.279000000     1.847000000
O     4.173000000     0.004000000     1.954000000
H     5.017000000    -0.223000000     2.345000000
H     3.786000000     0.631000000     2.565000000
O    -3.134000000    -2.098000000    -5.030000000
H    -3.222000000    -1.877000000    -5.958000000
H    -2.208000000    -1.949000000    -4.836000000
O    -0.029000000    -7.547000000    -2.511000000
H    -0.663000000    -8.000000000    -1.954000000
H     0.006000000    -6.657000000    -2.159000000
O    -6.501000000     1.252000000    -0.747000000
H    -6.756000000     1.879000000    -0.071000000
H    -6.006000000     1.771000000    -1.381000000
O    -0.384000000     3.075000000    -3.204000000
H    -1.339000000     3.149000000    -3.187000000
H    -0.104000000     3.740000000    -3.832000000
O    -2.048000000     0.386000000     3.834000000
H    -2.809000000     0.966000000     3.851000000
H    -1.504000000     0.682000000     4.564000000
O     3.461000000    -2.581000000     1.743000000
H     3.411000000    -1.652000000     1.968000000
H     2.572000000    -2.909000000     1.876000000
O     3.106000000    -4.684000000    -4.071000000
H     3.348000000    -5.345000000    -3.423000000
H     2.292000000    -5.012000000    -4.454000000
O     0.329000000    -4.701000000    -1.071000000
H    -0.309000000    -4.115000000    -1.478000000
H     1.179000000    -4.317000000    -1.287000000
O     3.513000000     0.090000000    -2.988000000
H     4.027000000     0.210000000    -2.190000000
H     3.154000000    -0.794000000    -2.911000000
O     4.689000000     1.122000000    -0.621000000
H     4.438000000     0.691000000     0.197000000
H     4.636000000     2.057000000    -0.424000000
O    -0.230000000     5.467000000     0.917000000
H    -0.482000000     5.428000000    -0.006000000
H    -0.568000000     4.653000000     1.292000000
O    -3.894000000    -6.570000000    -0.830000000
H    -4.757000000    -6.159000000    -0.880000000
H    -3.293000000    -5.845000000    -0.656000000
O    -1.351000000    -3.724000000    -3.024000000
H    -1.981000000    -3.532000000    -2.330000000
H    -1.724000000    -4.474000000    -3.487000000
O     6.905000000    -1.729000000    -2.101000000
H     6.168000000    -2.018000000    -1.563000000
H     6.506000000    -1.450000000    -2.924000000
O     2.330000000    -1.063000000     5.475000000
H     2.756000000    -0.353000000     4.996000000
H     2.967000000    -1.318000000     6.143000000
O     0.456000000    -4.618000000    -5.215000000
H     0.867000000    -4.042000000    -5.860000000
H     0.218000000    -4.036000000    -4.493000000
O    -1.736000000     7.866000000     0.978000000
H    -1.849000000     7.882000000     0.027000000
H    -1.266000000     7.049000000     1.149000000
O     0.739000000     0.586000000    -3.104000000
H     0.317000000     1.417000000    -2.888000000
H     0.523000000     0.009000000    -2.371000000
O     2.894000000    -0.363000000    -6.723000000
H     3.366000000    -1.159000000    -6.966000000
H     2.413000000    -0.602000000    -5.931000000
O     2.760000000    -2.582000000    -2.477000000
H     3.492000000    -2.709000000    -1.873000000
H     2.869000000    -3.270000000    -3.134000000
O     5.035000000     3.996000000     2.402000000
H     4.778000000     4.614000000     3.085000000
H     4.255000000     3.460000000     2.257000000
O     2.865000000     3.885000000     5.933000000
H     3.611000000     4.466000000     5.783000000
H     2.529000000     4.144000000     6.791000000
O    -5.564000000    -2.986000000    -0.411000000
H    -5.865000000    -3.782000000     0.026000000
H    -5.517000000    -2.332000000     0.286000000
O    -4.358000000     6.080000000     2.238000000
H    -3.619000000     6.425000000     2.741000000
H    -5.043000000     6.741000000     2.335000000
O     2.883000000     7.154000000     1.253000000
H     2.844000000     6.532000000     1.979000000
H     2.640000000     7.993000000     1.643000000
O    -3.025000000     3.337000000    -2.820000000
H    -3.956000000     3.205000000    -3.000000000
H    -3.002000000     3.709000000    -1.939000000
O     2.373000000     3.805000000     0.665000000
H     1.785000000     4.554000000     0.571000000
H     1.937000000     3.236000000     1.299000000
O    -2.191000000     3.736000000     4.361000000
H    -2.216000000     3.505000000     3.433000000
H    -1.259000000     3.751000000     4.579000000
O     0.443000000     4.055000000     4.640000000
H     1.311000000     4.222000000     5.008000000
H     0.613000000     3.548000000     3.846000000
O    -0.957000000    -0.433000000    -5.137000000
H    -1.586000000     0.276000000    -5.274000000
H    -0.305000000    -0.063000000    -4.541000000
O    -0.142000000     1.677000000     5.788000000
H     0.444000000     1.378000000     6.484000000
H     0.004000000     2.622000000     5.742000000
O     3.143000000     6.095000000     3.820000000
H     3.458000000     6.770000000     4.421000000
H     2.216000000     5.995000000     4.036000000
O     3.134000000     1.847000000     3.821000000
H     3.240000000     2.199000000     4.705000000
H     2.229000000     2.057000000     3.587000000
O     0.654000000     7.004000000     3.255000000
H     0.226000000     6.336000000     2.719000000
H     0.529000000     7.818000000     2.766000000
O    -5.429000000    -0.165000000    -4.654000000
H    -6.147000000    -0.785000000    -4.783000000
H    -4.673000000    -0.714000000    -4.449000000
O     4.691000000     3.989000000    -0.709000000
H     3.832000000     3.903000000    -0.295000000
H     5.229000000     4.435000000    -0.054000000
O    -5.573000000    -0.778000000     1.674000000
H    -5.930000000    -0.022000000     1.208000000
H    -5.501000000    -0.488000000     2.583000000
O    -4.770000000     3.613000000     3.684000000
H    -4.927000000     4.471000000     3.289000000
H    -4.038000000     3.756000000     4.284000000
O    -1.588000000    -4.792000000     2.052000000
H    -1.363000000    -4.452000000     2.918000000
H    -2.527000000    -4.971000000     2.102000000
O     4.584000000    -3.007000000    -0.719000000
H     5.233000000    -3.702000000    -0.606000000
H     4.342000000    -2.757000000     0.172000000
O    -3.082000000     4.195000000    -0.250000000
H    -3.435000000     4.744000000     0.450000000
H    -2.357000000     3.722000000     0.158000000
O     0.727000000    -3.615000000     1.991000000
H     0.185000000    -2.855000000     2.204000000
H     0.227000000    -4.086000000     1.324000000
O    -6.338000000     2.100000000     2.000000000
H    -5.749000000     2.504000000     2.637000000
H    -7.208000000     2.185000000     2.391000000
O     5.483000000    -4.407000000     1.960000000
H     4.814000000    -3.723000000     1.983000000
H     5.213000000    -5.028000000     2.636000000
O    -1.503000000    -1.667000000     2.369000000
H    -1.759000000    -0.955000000     2.956000000
H    -1.038000000    -1.232000000     1.654000000
O    -2.376000000    -3.463000000    -0.496000000
H    -3.223000000    -3.037000000    -0.364000000
H    -2.016000000    -3.560000000     0.385000000
O     1.782000000    -6.911000000     0.170000000
H     1.043000000    -6.304000000     0.203000000
H     1.888000000    -7.209000000     1.074000000
