158
-3032.35623
C     1.526000000    -0.109000000    -0.008000000
H     2.555000000    -0.455000000     0.053000000
C     0.644000000    -0.782000000    -0.870000000
H     0.984000000    -1.554000000    -1.555000000
C    -0.747000000    -0.496000000    -0.858000000
H    -1.438000000    -1.056000000    -1.536000000
C    -1.198000000     0.501000000    -0.004000000
H    -2.279000000     0.585000000     0.078000000
C    -0.376000000     1.107000000     0.956000000
H    -0.756000000     1.668000000     1.806000000
C     1.000000000     0.868000000     0.878000000
C     1.922000000     1.515000000     1.897000000
O     3.128000000     1.428000000     1.779000000
O     1.397000000     2.136000000     2.781000000
O    -5.253000000     2.428000000    -1.376000000
H    -4.355000000     2.104000000    -1.304000000
H    -5.223000000     3.060000000    -2.094000000
O    -5.950000000    -0.250000000    -2.851000000
H    -6.891000000    -0.417000000    -2.798000000
H    -5.853000000     0.662000000    -2.577000000
O     3.860000000    -1.207000000     2.696000000
H     3.985000000    -0.308000000     2.391000000
H     3.199000000    -1.137000000     3.384000000
O    -0.602000000     0.429000000     7.030000000
H    -0.525000000     1.020000000     6.281000000
H    -1.525000000     0.175000000     7.040000000
O    -0.675000000    -4.636000000    -0.549000000
H    -1.410000000    -5.088000000    -0.964000000
H     0.039000000    -4.707000000    -1.183000000
O    -0.191000000     0.656000000     4.319000000
H    -0.857000000     1.339000000     4.242000000
H     0.560000000     0.996000000     3.832000000
O    -1.757000000    -6.721000000     1.372000000
H    -2.397000000    -7.330000000     1.003000000
H    -1.562000000    -6.116000000     0.657000000
O    -4.683000000     1.812000000     4.581000000
H    -5.602000000     2.066000000     4.500000000
H    -4.213000000     2.430000000     4.021000000
O     3.931000000    -3.710000000     1.692000000
H     3.779000000    -2.785000000     1.886000000
H     3.795000000    -3.782000000     0.747000000
O     0.978000000    -2.759000000    -4.345000000
H     1.221000000    -2.451000000    -5.218000000
H     1.553000000    -2.275000000    -3.751000000
O     3.663000000     1.021000000     7.382000000
H     4.615000000     1.027000000     7.483000000
H     3.515000000     1.316000000     6.483000000
O    -1.892000000    -2.549000000    -4.417000000
H    -0.990000000    -2.867000000    -4.460000000
H    -2.283000000    -2.823000000    -5.246000000
O     5.963000000    -0.171000000    -0.922000000
H     6.290000000    -0.440000000    -1.781000000
H     6.108000000    -0.934000000    -0.362000000
O     2.928000000     1.868000000     4.882000000
H     2.565000000     0.999000000     5.051000000
H     2.631000000     2.084000000     3.998000000
O    -2.751000000    -5.956000000    -1.270000000
H    -2.583000000    -6.762000000    -1.759000000
H    -3.527000000    -6.153000000    -0.745000000
O    -6.699000000     1.291000000     1.519000000
H    -6.285000000     0.447000000     1.697000000
H    -5.973000000     1.914000000     1.494000000
O    -5.921000000    -3.197000000    -0.475000000
H    -5.232000000    -2.743000000    -0.961000000
H    -6.269000000    -3.838000000    -1.095000000
O    -0.040000000    -2.844000000     1.446000000
H    -0.091000000    -3.528000000     0.778000000
H     0.084000000    -2.034000000     0.952000000
O     4.065000000     1.780000000    -0.788000000
H     4.753000000     1.114000000    -0.766000000
H     3.650000000     1.724000000     0.073000000
O     0.417000000     2.133000000    -2.329000000
H     0.463000000     1.309000000    -1.844000000
H     0.206000000     1.872000000    -3.225000000
O     3.553000000    -2.005000000    -2.942000000
H     3.551000000    -1.048000000    -2.968000000
H     4.433000000    -2.250000000    -3.226000000
O    -5.869000000    -1.384000000     1.748000000
H    -5.240000000    -2.092000000     1.883000000
H    -6.329000000    -1.622000000     0.943000000
O     5.413000000     2.193000000     2.703000000
H     5.838000000     1.567000000     3.289000000
H     4.627000000     1.740000000     2.397000000
O    -3.549000000    -3.384000000    -2.064000000
H    -2.842000000    -2.795000000    -2.328000000
H    -3.102000000    -4.146000000    -1.697000000
O    -0.415000000     0.812000000    -4.544000000
H    -1.259000000     0.650000000    -4.124000000
H    -0.238000000     0.013000000    -5.041000000
O     4.903000000     4.664000000     1.397000000
H     4.946000000     3.710000000     1.466000000
H     4.522000000     4.825000000     0.534000000
O    -1.994000000     2.565000000     3.830000000
H    -2.332000000     2.462000000     2.941000000
H    -1.656000000     3.460000000     3.856000000
O     3.487000000     0.652000000    -3.391000000
H     2.827000000     1.130000000    -3.893000000
H     3.998000000     1.334000000    -2.956000000
O     7.433000000     4.062000000     3.130000000
H     7.102000000     4.936000000     2.922000000
H     6.649000000     3.517000000     3.191000000
O     1.948000000    -1.094000000     4.760000000
H     1.964000000    -1.950000000     5.189000000
H     1.197000000    -0.646000000     5.149000000
O    -3.802000000    -0.944000000     4.902000000
H    -3.142000000    -1.197000000     4.256000000
H    -4.068000000    -0.063000000     4.639000000
O     1.248000000    -4.697000000    -2.370000000
H     1.530000000    -5.489000000    -2.828000000
H     1.133000000    -4.047000000    -3.063000000
O     1.811000000     4.084000000    -0.959000000
H     1.279000000     3.799000000    -1.703000000
H     2.537000000     3.461000000    -0.932000000
O     1.381000000     6.343000000     4.953000000
H     0.945000000     5.943000000     4.201000000
H     1.135000000     5.789000000     5.695000000
O     6.150000000    -0.397000000     4.188000000
H     6.241000000    -0.795000000     5.053000000
H     5.753000000    -1.082000000     3.649000000
O     1.918000000     3.944000000     6.431000000
H     1.515000000     3.493000000     7.173000000
H     2.238000000     3.239000000     5.867000000
O     4.440000000     4.789000000     4.427000000
H     3.604000000     4.327000000     4.372000000
H     4.531000000     5.223000000     3.578000000
O    -2.749000000    -0.055000000    -3.475000000
H    -3.693000000    -0.206000000    -3.428000000
H    -2.409000000    -0.818000000    -3.942000000
O    -2.564000000    -0.018000000    -6.822000000
H    -3.512000000     0.013000000    -6.694000000
H    -2.378000000    -0.936000000    -7.019000000
O    -0.274000000     4.848000000     0.521000000
H     0.596000000     4.592000000     0.212000000
H    -0.336000000     5.781000000     0.315000000
O    -3.961000000    -3.569000000     1.939000000
H    -3.225000000    -3.976000000     2.395000000
H    -3.824000000    -3.791000000     1.018000000
O    -5.501000000    -3.347000000    -4.005000000
H    -4.955000000    -3.249000000    -4.785000000
H    -4.879000000    -3.493000000    -3.293000000
O     3.505000000    -3.926000000    -0.937000000
H     3.465000000    -3.412000000    -1.744000000
H     2.715000000    -4.467000000    -0.958000000
O     0.212000000     4.441000000     2.994000000
H     0.630000000     3.582000000     3.059000000
H    -0.128000000     4.475000000     2.100000000
O    -3.655000000     2.838000000     1.460000000
H    -4.312000000     3.533000000     1.471000000
H    -3.196000000     2.955000000     0.628000000
O     7.492000000     2.350000000    -0.099000000
H     7.101000000     2.333000000     0.775000000
H     7.230000000     1.519000000    -0.495000000
O    -2.135000000     3.306000000    -0.846000000
H    -1.478000000     2.667000000    -1.122000000
H    -1.655000000     4.132000000    -0.787000000
O    -1.421000000    -1.849000000     4.198000000
H    -0.852000000    -2.079000000     3.463000000
H    -1.028000000    -1.059000000     4.567000000
