158
-3031.72348
C     1.094000000     0.111000000     1.068000000
H     1.937000000     0.261000000     1.737000000
C     1.030000000    -0.875000000     0.040000000
H     1.855000000    -1.580000000    -0.026000000
C     0.012000000    -0.833000000    -0.901000000
H     0.040000000    -1.551000000    -1.641000000
C    -1.014000000     0.081000000    -0.749000000
H    -1.860000000     0.117000000    -1.429000000
C    -0.938000000     1.039000000     0.237000000
H    -1.791000000     1.697000000     0.382000000
C     0.084000000     1.027000000     1.136000000
C     0.027000000     2.101000000     2.162000000
O     0.962000000     2.095000000     2.971000000
O    -0.706000000     3.074000000     2.024000000
O     5.085000000     1.127000000     2.341000000
H     4.820000000     0.549000000     3.056000000
H     5.560000000     0.558000000     1.736000000
O    -2.195000000    -4.134000000    -3.611000000
H    -2.962000000    -4.685000000    -3.767000000
H    -2.371000000    -3.713000000    -2.769000000
O     4.920000000    -4.711000000    -0.116000000
H     4.479000000    -4.499000000    -0.939000000
H     4.216000000    -4.996000000     0.466000000
O     0.258000000     0.180000000     5.374000000
H     0.881000000     0.511000000     4.728000000
H    -0.591000000     0.509000000     5.078000000
O    -0.949000000    -7.537000000    -1.461000000
H    -0.935000000    -7.308000000    -0.531000000
H    -1.692000000    -8.133000000    -1.550000000
O    -2.972000000     3.233000000     3.379000000
H    -3.784000000     3.335000000     2.883000000
H    -2.278000000     3.355000000     2.730000000
O     5.622000000    -1.407000000     0.901000000
H     6.564000000    -1.499000000     0.756000000
H     5.222000000    -1.738000000     0.097000000
O    -0.512000000    -5.696000000     0.969000000
H    -0.139000000    -5.223000000     0.225000000
H    -1.054000000    -5.048000000     1.418000000
O     4.829000000    -0.916000000    -3.182000000
H     4.758000000     0.027000000    -3.036000000
H     5.744000000    -1.052000000    -3.428000000
O     4.284000000     1.564000000    -0.982000000
H     5.124000000     1.586000000    -0.524000000
H     3.730000000     2.176000000    -0.496000000
O     3.971000000     5.418000000     4.726000000
H     4.888000000     5.243000000     4.516000000
H     3.544000000     4.563000000     4.662000000
O     1.581000000    -4.877000000    -6.399000000
H     2.209000000    -4.190000000    -6.626000000
H     0.773000000    -4.405000000    -6.197000000
O     0.053000000    -5.823000000    -3.396000000
H    -0.597000000    -5.175000000    -3.668000000
H    -0.446000000    -6.467000000    -2.894000000
O    -5.915000000     4.278000000    -0.666000000
H    -5.610000000     3.401000000    -0.899000000
H    -6.867000000     4.233000000    -0.757000000
O    -5.449000000    -1.688000000     0.995000000
H    -5.957000000    -0.877000000     1.020000000
H    -4.601000000    -1.452000000     1.369000000
O    -2.874000000    -0.991000000     2.386000000
H    -3.630000000    -1.091000000     2.965000000
H    -2.779000000    -0.044000000     2.278000000
O    -1.977000000     1.160000000    -3.733000000
H    -2.749000000     0.624000000    -3.913000000
H    -2.286000000     2.062000000    -3.821000000
O     2.373000000    -0.382000000    -4.613000000
H     2.907000000    -0.819000000    -3.950000000
H     1.535000000    -0.223000000    -4.178000000
O    -0.230000000     6.425000000     2.266000000
H    -0.799000000     5.934000000     2.858000000
H    -0.796000000     6.660000000     1.530000000
O    -4.650000000    -2.575000000    -2.592000000
H    -4.574000000    -3.452000000    -2.967000000
H    -4.776000000    -2.725000000    -1.655000000
O    -3.235000000     5.737000000    -0.113000000
H    -2.429000000     5.452000000    -0.544000000
H    -3.935000000     5.447000000    -0.697000000
O    -1.809000000     5.728000000     6.057000000
H    -2.668000000     5.474000000     5.719000000
H    -1.207000000     5.079000000     5.692000000
O    -5.386000000     3.498000000     2.145000000
H    -5.378000000     3.844000000     1.252000000
H    -6.260000000     3.708000000     2.475000000
O     3.175000000     3.287000000     1.567000000
H     2.492000000     3.033000000     2.188000000
H     3.787000000     2.551000000     1.571000000
O     0.203000000     4.556000000     4.465000000
H    -0.103000000     4.150000000     3.654000000
H     1.089000000     4.214000000     4.585000000
O     2.578000000    -5.142000000     1.808000000
H     1.745000000    -5.102000000     1.339000000
H     2.413000000    -4.679000000     2.630000000
O     0.495000000     2.229000000    -2.422000000
H     0.101000000     2.962000000    -1.949000000
H    -0.016000000     1.467000000    -2.151000000
O     2.254000000     2.945000000     5.211000000
H     2.930000000     2.439000000     5.662000000
H     1.932000000     2.358000000     4.527000000
O    -2.285000000     1.001000000     4.644000000
H    -3.023000000     0.420000000     4.460000000
H    -2.451000000     1.776000000     4.107000000
O    -0.865000000    -0.453000000    -5.838000000
H    -0.322000000     0.334000000    -5.881000000
H    -1.497000000    -0.270000000    -5.143000000
O     1.731000000    -3.272000000     3.920000000
H     0.947000000    -2.741000000     3.778000000
H     2.459000000    -2.667000000     3.778000000
O     2.377000000     7.182000000     3.387000000
H     2.809000000     6.538000000     3.948000000
H     1.590000000     6.736000000     3.074000000
O     2.026000000     5.416000000    -0.277000000
H     2.717000000     5.542000000    -0.927000000
H     2.375000000     4.752000000     0.318000000
O     0.335000000     2.011000000    -5.444000000
H     1.025000000     2.667000000    -5.347000000
H     0.096000000     1.781000000    -4.546000000
O    -4.065000000    -0.615000000    -4.527000000
H    -4.190000000    -1.220000000    -3.796000000
H    -4.952000000    -0.408000000    -4.821000000
O    -4.400000000     1.109000000     1.402000000
H    -4.980000000     1.775000000     1.772000000
H    -4.624000000     1.087000000     0.471000000
O    -2.810000000     3.867000000    -2.804000000
H    -2.166000000     3.866000000    -2.096000000
H    -2.374000000     4.321000000    -3.524000000
O     3.532000000    -2.854000000    -6.462000000
H     3.877000000    -2.590000000    -7.315000000
H     3.363000000    -2.030000000    -6.005000000
O     3.289000000    -2.869000000    -2.069000000
H     3.733000000    -3.492000000    -2.644000000
H     3.711000000    -2.030000000    -2.254000000
O    -0.422000000     4.218000000    -0.752000000
H     0.243000000     4.875000000    -0.547000000
H    -0.582000000     3.771000000     0.080000000
O    -3.116000000     6.430000000     3.045000000
H    -3.491000000     7.015000000     2.388000000
H    -3.168000000     5.560000000     2.649000000
O     1.079000000    -4.448000000    -1.114000000
H     1.645000000    -3.690000000    -1.263000000
H     0.886000000    -4.780000000    -1.991000000
O     0.490000000     3.887000000     7.865000000
H     0.857000000     3.280000000     7.223000000
H     0.941000000     4.715000000     7.698000000
O    -0.597000000    -3.002000000    -5.958000000
H    -1.099000000    -3.126000000    -5.153000000
H    -0.515000000    -2.053000000    -6.047000000
O    -5.191000000     1.604000000    -1.444000000
H    -5.833000000     0.896000000    -1.478000000
H    -4.919000000     1.725000000    -2.354000000
O    -0.358000000    -2.017000000     2.981000000
H    -0.032000000    -2.044000000     2.081000000
H    -1.222000000    -1.610000000     2.910000000
O    -2.285000000    -4.130000000     2.229000000
H    -3.131000000    -4.072000000     1.785000000
H    -2.368000000    -3.545000000     2.982000000
O     4.358000000    -2.133000000     3.549000000
H     4.483000000    -1.977000000     2.613000000
H     5.013000000    -2.795000000     3.771000000
