158
-3031.77863
C     1.422000000     0.291000000     0.224000000
H     2.478000000     0.506000000     0.365000000
C     0.943000000    -0.868000000    -0.454000000
H     1.647000000    -1.603000000    -0.837000000
C    -0.412000000    -1.060000000    -0.490000000
H    -0.831000000    -1.971000000    -0.866000000
C    -1.303000000    -0.075000000    -0.001000000
H    -2.372000000    -0.214000000    -0.138000000
C    -0.800000000     1.171000000     0.486000000
H    -1.487000000     1.827000000     1.014000000
C     0.555000000     1.348000000     0.630000000
C     1.109000000     2.657000000     1.102000000
O     2.242000000     2.673000000     1.551000000
O     0.399000000     3.651000000     1.123000000
O     4.712000000     3.495000000     0.941000000
H     5.188000000     2.731000000     0.614000000
H     3.892000000     3.138000000     1.282000000
O     0.423000000     4.233000000    -3.178000000
H    -0.071000000     3.847000000    -2.455000000
H     1.139000000     3.617000000    -3.334000000
O     3.907000000     1.824000000     3.416000000
H     4.060000000     2.657000000     3.862000000
H     3.458000000     2.064000000     2.606000000
O    -0.079000000    -3.609000000    -5.996000000
H     0.650000000    -4.199000000    -5.805000000
H    -0.797000000    -4.189000000    -6.249000000
O    -1.218000000     7.290000000     1.826000000
H    -1.331000000     7.113000000     0.892000000
H    -0.314000000     7.034000000     2.010000000
O    -3.315000000    -4.086000000    -1.290000000
H    -2.930000000    -3.976000000    -0.421000000
H    -2.807000000    -4.794000000    -1.688000000
O    -3.823000000    -2.837000000    -3.899000000
H    -4.027000000    -3.449000000    -3.192000000
H    -3.720000000    -3.391000000    -4.673000000
O     6.400000000     1.644000000     0.212000000
H     7.235000000     2.106000000     0.139000000
H     6.340000000     1.129000000    -0.593000000
O    -3.346000000    -0.504000000    -5.074000000
H    -2.917000000     0.233000000    -4.638000000
H    -3.207000000    -1.245000000    -4.484000000
O     5.718000000    -2.082000000    -0.763000000
H     5.959000000    -1.574000000     0.012000000
H     5.964000000    -2.981000000    -0.545000000
O    -1.413000000     6.730000000     4.838000000
H    -2.357000000     6.881000000     4.890000000
H    -1.182000000     6.966000000     3.939000000
O     3.534000000     4.043000000     6.006000000
H     4.252000000     4.597000000     6.312000000
H     2.905000000     4.656000000     5.625000000
O    -2.047000000     1.352000000    -2.636000000
H    -3.002000000     1.403000000    -2.674000000
H    -1.811000000     1.866000000    -1.864000000
O    -4.739000000     2.369000000    -2.534000000
H    -5.493000000     2.515000000    -1.962000000
H    -5.021000000     2.691000000    -3.390000000
O     6.103000000     0.164000000    -2.263000000
H     5.452000000     0.152000000    -2.964000000
H     5.969000000    -0.663000000    -1.798000000
O     2.203000000     7.528000000    -0.170000000
H     3.085000000     7.646000000    -0.523000000
H     1.679000000     7.252000000    -0.922000000
O     2.745000000    -5.992000000    -3.491000000
H     2.838000000    -5.186000000    -2.983000000
H     2.340000000    -5.711000000    -4.312000000
O    -0.909000000    -1.892000000     2.302000000
H    -1.524000000    -1.257000000     1.937000000
H    -0.182000000    -1.362000000     2.627000000
O    -1.151000000     3.964000000    -0.983000000
H    -0.685000000     3.775000000    -0.168000000
H    -1.515000000     4.839000000    -0.852000000
O    -1.880000000     6.807000000    -0.833000000
H    -2.752000000     6.822000000    -1.229000000
H    -1.294000000     7.092000000    -1.534000000
O    -3.090000000    -3.810000000     1.369000000
H    -3.553000000    -4.440000000     1.921000000
H    -2.347000000    -3.527000000     1.901000000
O     1.515000000    -0.599000000     2.853000000
H     1.569000000     0.316000000     3.132000000
H     2.274000000    -0.720000000     2.282000000
O     0.572000000    -0.737000000    -5.974000000
H     0.045000000    -1.524000000    -6.113000000
H     0.187000000    -0.325000000    -5.201000000
O     1.598000000     6.101000000     2.307000000
H     1.323000000     5.245000000     1.979000000
H     1.965000000     6.544000000     1.542000000
O    -1.180000000    -3.584000000     4.448000000
H    -2.113000000    -3.394000000     4.347000000
H    -0.751000000    -3.027000000     3.799000000
O     2.059000000     6.314000000     4.973000000
H     1.623000000     6.239000000     4.125000000
H     2.662000000     7.050000000     4.869000000
O    -1.728000000    -6.024000000    -2.232000000
H    -1.999000000    -6.743000000    -2.804000000
H    -0.772000000    -6.049000000    -2.253000000
O     3.500000000    -0.009000000     5.397000000
H     3.418000000    -0.781000000     4.837000000
H     3.575000000     0.724000000     4.786000000
O    -0.094000000    -7.224000000     1.300000000
H     0.580000000    -7.604000000     0.737000000
H    -0.371000000    -6.431000000     0.842000000
O     6.207000000     0.533000000     2.951000000
H     6.402000000     0.468000000     2.016000000
H     5.271000000     0.731000000     2.987000000
O     3.753000000     5.766000000    -2.495000000
H     4.287000000     6.538000000    -2.685000000
H     4.126000000     5.410000000    -1.689000000
O     1.899000000     2.266000000    -4.611000000
H     1.700000000     2.534000000    -5.508000000
H     1.290000000     1.548000000    -4.435000000
O    -2.629000000     2.141000000     4.517000000
H    -2.094000000     2.314000000     5.292000000
H    -2.287000000     2.738000000     3.852000000
O     3.891000000    -4.501000000     0.757000000
H     3.299000000    -4.753000000     1.466000000
H     4.355000000    -3.734000000     1.094000000
O     2.998000000    -3.843000000    -1.754000000
H     3.692000000    -3.289000000    -2.113000000
H     3.254000000    -3.986000000    -0.843000000
O     0.213000000     0.390000000    -3.367000000
H    -0.650000000     0.763000000    -3.187000000
H     0.499000000     0.031000000    -2.527000000
O    -5.918000000    -4.594000000    -0.778000000
H    -5.048000000    -4.532000000    -1.172000000
H    -6.033000000    -5.526000000    -0.595000000
O    -6.324000000    -0.049000000    -1.623000000
H    -5.652000000    -0.409000000    -1.045000000
H    -6.880000000     0.476000000    -1.048000000
O     0.070000000    -4.337000000     1.362000000
H    -0.257000000    -3.562000000     1.818000000
H     0.539000000    -3.990000000     0.604000000
O    -1.721000000     3.985000000     2.856000000
H    -2.242000000     4.734000000     2.565000000
H    -0.928000000     4.023000000     2.320000000
O     4.025000000    -2.078000000     2.290000000
H     3.455000000    -2.539000000     2.906000000
H     4.911000000    -2.247000000     2.610000000
O    -4.287000000     5.267000000    -1.561000000
H    -4.130000000     4.380000000    -1.885000000
H    -5.105000000     5.534000000    -1.980000000
O    -4.678000000     2.747000000     1.740000000
H    -4.243000000     1.959000000     2.067000000
H    -3.963000000     3.358000000     1.560000000
O    -4.918000000    -1.576000000     0.370000000
H    -4.718000000    -2.510000000     0.307000000
H    -4.146000000    -1.193000000     0.786000000
O     4.096000000     0.506000000    -3.782000000
H     3.538000000    -0.035000000    -4.340000000
H     3.551000000     1.261000000    -3.559000000
O    -2.953000000    -7.068000000     0.166000000
H    -2.413000000    -6.396000000    -0.250000000
H    -2.442000000    -7.350000000     0.925000000
O    -3.661000000     0.122000000     2.365000000
H    -4.407000000    -0.376000000     2.699000000
H    -3.261000000     0.507000000     3.145000000
O     0.518000000     7.079000000    -2.320000000
H     0.746000000     6.193000000    -2.600000000
H     0.785000000     7.637000000    -3.051000000
