158
-3030.56186
C     1.277000000     0.055000000     0.574000000
H     2.185000000    -0.068000000     1.160000000
C     0.705000000    -1.095000000     0.130000000
H     1.144000000    -2.085000000     0.219000000
C    -0.506000000    -1.019000000    -0.446000000
H    -0.943000000    -1.845000000    -0.917000000
C    -1.158000000     0.246000000    -0.567000000
H    -2.153000000     0.183000000    -1.002000000
C    -0.594000000     1.439000000    -0.087000000
H    -1.074000000     2.409000000    -0.191000000
C     0.695000000     1.317000000     0.498000000
C     1.452000000     2.521000000     1.097000000
O     2.421000000     2.376000000     1.817000000
O     1.106000000     3.609000000     0.715000000
O     4.703000000     2.290000000     0.171000000
H     4.729000000     1.336000000     0.095000000
H     3.913000000     2.467000000     0.682000000
O     0.342000000    -3.540000000     3.864000000
H    -0.158000000    -3.066000000     3.199000000
H     0.142000000    -4.462000000     3.702000000
O    -0.522000000     4.916000000    -3.846000000
H     0.267000000     5.411000000    -3.622000000
H    -1.077000000     5.545000000    -4.305000000
O    -1.126000000    -4.975000000    -6.287000000
H    -0.817000000    -5.871000000    -6.155000000
H    -1.772000000    -4.840000000    -5.594000000
O    -5.822000000    -1.569000000    -3.026000000
H    -5.129000000    -1.966000000    -2.499000000
H    -5.556000000    -0.655000000    -3.123000000
O     4.587000000     1.660000000     3.253000000
H     4.497000000     1.912000000     4.172000000
H     4.081000000     2.317000000     2.774000000
O    -2.372000000     4.776000000     0.565000000
H    -3.101000000     4.286000000     0.943000000
H    -1.628000000     4.575000000     1.133000000
O     0.308000000     5.724000000     2.041000000
H     0.631000000     6.443000000     1.498000000
H     0.562000000     4.933000000     1.567000000
O     0.499000000    -5.121000000    -1.854000000
H     1.143000000    -4.518000000    -2.224000000
H     0.921000000    -5.979000000    -1.899000000
O     1.302000000    -2.896000000    -5.325000000
H     1.590000000    -3.284000000    -4.499000000
H     0.830000000    -3.602000000    -5.769000000
O     5.675000000     3.786000000    -2.201000000
H     5.107000000     3.405000000    -2.871000000
H     5.433000000     3.332000000    -1.394000000
O    -3.286000000     6.288000000    -1.356000000
H    -3.198000000     5.741000000    -2.136000000
H    -3.040000000     5.713000000    -0.631000000
O    -0.579000000     2.069000000    -3.453000000
H    -1.353000000     1.932000000    -2.907000000
H    -0.637000000     2.986000000    -3.723000000
O    -3.730000000     2.765000000    -2.138000000
H    -3.690000000     2.883000000    -1.189000000
H    -4.657000000     2.617000000    -2.323000000
O     5.788000000    -0.473000000     0.682000000
H     6.605000000    -0.362000000     0.196000000
H     5.909000000     0.046000000     1.476000000
O     2.506000000    -3.533000000    -2.804000000
H     3.062000000    -2.939000000    -2.301000000
H     3.037000000    -3.775000000    -3.563000000
O     1.066000000    -0.071000000     4.250000000
H     1.978000000    -0.277000000     4.044000000
H     1.037000000     0.886000000     4.275000000
O     2.307000000     4.253000000    -1.371000000
H     2.565000000     3.382000000    -1.673000000
H     1.639000000     4.087000000    -0.706000000
O     2.183000000     8.440000000     1.664000000
H     2.555000000     7.695000000     2.137000000
H     2.868000000     9.108000000     1.694000000
O     3.201000000    -3.776000000     4.190000000
H     2.246000000    -3.766000000     4.133000000
H     3.449000000    -2.852000000     4.208000000
O    -3.859000000    -2.403000000    -1.586000000
H    -3.451000000    -3.164000000    -1.999000000
H    -3.530000000    -2.414000000    -0.687000000
O     1.207000000     7.215000000     4.570000000
H     0.899000000     6.939000000     3.707000000
H     0.435000000     7.595000000     4.989000000
O    -2.788000000    -1.085000000     4.514000000
H    -2.161000000    -1.351000000     3.841000000
H    -3.569000000    -1.608000000     4.333000000
O     3.864000000    -0.887000000     4.045000000
H     4.143000000    -0.117000000     3.550000000
H     4.589000000    -1.061000000     4.646000000
O     4.094000000     6.182000000    -0.546000000
H     3.335000000     6.725000000    -0.756000000
H     3.955000000     5.373000000    -1.040000000
O     2.875000000     5.032000000     4.673000000
H     3.390000000     5.072000000     3.867000000
H     2.286000000     5.784000000     4.619000000
O     3.495000000     5.134000000     2.009000000
H     3.128000000     4.293000000     1.739000000
H     4.116000000     5.358000000     1.316000000
O    -4.986000000    -4.845000000     1.187000000
H    -5.019000000    -3.912000000     1.398000000
H    -4.053000000    -5.033000000     1.077000000
O    -6.495000000    -1.879000000    -0.172000000
H    -5.768000000    -1.521000000     0.337000000
H    -6.329000000    -1.584000000    -1.067000000
O     7.134000000     0.831000000     2.496000000
H     7.711000000     0.531000000     3.198000000
H     6.294000000     0.989000000     2.926000000
O     3.235000000     5.716000000    -3.636000000
H     2.514000000     6.312000000    -3.839000000
H     2.961000000     5.274000000    -2.833000000
O     7.345000000     3.539000000     1.154000000
H     6.553000000     3.450000000     0.624000000
H     7.318000000     2.794000000     1.753000000
O    -4.154000000     2.316000000     0.510000000
H    -3.774000000     2.010000000     1.333000000
H    -5.067000000     2.508000000     0.725000000
O    -1.963000000    -5.069000000     1.620000000
H    -1.788000000    -5.980000000     1.383000000
H    -2.093000000    -5.089000000     2.568000000
O    -1.076000000     4.040000000     3.953000000
H    -0.245000000     3.636000000     4.203000000
H    -0.828000000     4.758000000     3.371000000
O     5.474000000    -3.369000000     0.221000000
H     5.712000000    -2.750000000     0.912000000
H     4.624000000    -3.715000000     0.492000000
O    -3.302000000     0.765000000    -4.051000000
H    -2.917000000     0.824000000    -3.176000000
H    -4.174000000     1.148000000    -3.954000000
O     5.031000000    -1.470000000    -2.868000000
H     5.518000000    -2.025000000    -2.259000000
H     4.789000000    -0.702000000    -2.351000000
O     1.589000000     0.521000000    -3.315000000
H     1.026000000     1.205000000    -3.678000000
H     1.133000000     0.229000000    -2.526000000
O    -2.239000000    -4.614000000    -2.452000000
H    -1.389000000    -5.033000000    -2.587000000
H    -2.695000000    -5.189000000    -1.838000000
O    -3.870000000    -2.108000000     1.305000000
H    -4.233000000    -2.270000000     2.175000000
H    -3.036000000    -1.670000000     1.471000000
O     2.913000000    -5.019000000     1.946000000
H     3.143000000    -4.691000000     2.815000000
H     2.134000000    -4.519000000     1.701000000
O    -3.614000000    -4.214000000    -5.174000000
H    -3.971000000    -3.345000000    -5.357000000
H    -3.748000000    -4.335000000    -4.234000000
O     1.401000000     2.737000000     4.281000000
H     1.931000000     3.472000000     4.592000000
H     1.713000000     2.577000000     3.391000000
O    -0.522000000     7.070000000    -0.639000000
H    -0.809000000     7.206000000    -1.542000000
H    -1.131000000     6.419000000    -0.290000000
O    -3.214000000     1.553000000     3.005000000
H    -2.954000000     0.754000000     3.464000000
H    -2.758000000     2.255000000     3.470000000
O     0.372000000    -4.139000000     0.859000000
H     0.619000000    -4.464000000    -0.007000000
H    -0.514000000    -4.473000000     0.996000000
O    -0.924000000    -0.895000000     2.637000000
H    -0.289000000    -0.607000000     3.293000000
H    -0.417000000    -0.971000000     1.829000000
