158
-3033.16294
C     0.620000000    -1.195000000    -0.693000000
H     1.033000000    -2.148000000    -1.015000000
C    -0.234000000    -1.133000000     0.425000000
H    -0.574000000    -2.042000000     0.915000000
C    -0.672000000     0.036000000     1.028000000
H    -1.274000000    -0.025000000     1.948000000
C    -0.385000000     1.224000000     0.459000000
H    -0.700000000     2.178000000     0.872000000
C     0.459000000     1.310000000    -0.641000000
H     0.644000000     2.293000000    -1.065000000
C     1.007000000     0.057000000    -1.229000000
C     1.691000000    -0.031000000    -2.504000000
O     2.351000000     0.935000000    -2.952000000
O     1.671000000    -1.010000000    -3.223000000
O     1.286000000     2.040000000    -5.191000000
H     0.461000000     1.607000000    -4.970000000
H     1.855000000     1.870000000    -4.441000000
O    -3.710000000     2.610000000     3.415000000
H    -2.930000000     2.501000000     3.958000000
H    -4.387000000     2.904000000     4.024000000
O     4.194000000     1.592000000     0.840000000
H     4.139000000     2.528000000     0.647000000
H     3.392000000     1.401000000     1.326000000
O    -4.128000000    -1.091000000     2.404000000
H    -4.492000000    -0.347000000     1.925000000
H    -3.387000000    -1.380000000     1.871000000
O     1.494000000     6.828000000    -0.968000000
H     2.023000000     6.915000000    -1.761000000
H     1.492000000     7.704000000    -0.583000000
O     0.367000000     0.013000000    -7.523000000
H     0.743000000     0.721000000    -8.048000000
H    -0.071000000     0.459000000    -6.798000000
O    -5.025000000     1.254000000     1.403000000
H    -5.136000000     1.955000000     0.760000000
H    -4.734000000     1.701000000     2.197000000
O     2.436000000     3.557000000    -2.593000000
H     2.584000000     2.613000000    -2.530000000
H     2.849000000     3.809000000    -3.419000000
O    -0.802000000    -1.812000000    -4.054000000
H    -1.054000000    -2.650000000    -3.666000000
H    -0.007000000    -1.560000000    -3.584000000
O    -2.215000000    -5.332000000     5.415000000
H    -2.528000000    -4.469000000     5.143000000
H    -1.677000000    -5.160000000     6.187000000
O    -2.076000000     0.658000000     5.772000000
H    -2.304000000    -0.140000000     5.295000000
H    -1.636000000     1.208000000     5.124000000
O    -0.267000000     4.934000000    -1.911000000
H     0.250000000     5.739000000    -1.923000000
H     0.329000000     4.261000000    -2.238000000
O     6.120000000    -3.481000000    -2.464000000
H     6.904000000    -2.953000000    -2.615000000
H     5.401000000    -2.946000000    -2.801000000
O     2.584000000    -4.313000000    -6.350000000
H     2.222000000    -5.086000000    -6.782000000
H     2.074000000    -3.582000000    -6.699000000
O     4.686000000     0.171000000    -3.594000000
H     4.844000000     0.800000000    -4.298000000
H     3.775000000     0.318000000    -3.341000000
O    -3.685000000    -1.359000000    -0.407000000
H    -4.504000000    -1.112000000    -0.837000000
H    -3.134000000    -0.579000000    -0.476000000
O     4.012000000     3.526000000    -4.902000000
H     4.710000000     4.125000000    -4.637000000
H     3.990000000     3.592000000    -5.857000000
O     1.700000000     3.391000000     2.817000000
H     1.170000000     3.620000000     2.054000000
H     2.349000000     4.092000000     2.877000000
O     2.473000000    -1.766000000     5.396000000
H     3.045000000    -1.616000000     6.149000000
H     1.654000000    -2.084000000     5.777000000
O     4.706000000    -4.983000000     2.137000000
H     5.194000000    -4.309000000     2.610000000
H     4.092000000    -4.495000000     1.590000000
O    -6.498000000    -2.253000000     3.301000000
H    -5.667000000    -1.778000000     3.297000000
H    -6.950000000    -1.941000000     4.084000000
O     2.230000000     0.265000000     2.097000000
H     1.631000000     0.647000000     1.456000000
H     1.802000000    -0.546000000     2.372000000
O    -2.663000000     4.935000000     2.460000000
H    -2.960000000     4.032000000     2.571000000
H    -1.874000000     4.864000000     1.923000000
O    -2.902000000     4.783000000    -1.569000000
H    -1.945000000     4.755000000    -1.576000000
H    -3.113000000     5.647000000    -1.215000000
O    -2.530000000    -3.637000000    -0.814000000
H    -2.142000000    -3.679000000    -1.688000000
H    -2.905000000    -2.758000000    -0.760000000
O    -1.183000000     0.725000000    -5.250000000
H    -2.080000000     0.960000000    -5.488000000
H    -1.274000000    -0.074000000    -4.731000000
O    -5.078000000     3.795000000    -0.213000000
H    -4.291000000     4.167000000    -0.611000000
H    -5.775000000     4.410000000    -0.442000000
O    -3.002000000     4.533000000     5.524000000
H    -3.582000000     5.208000000     5.874000000
H    -2.814000000     4.819000000     4.630000000
O    -3.720000000    -2.933000000     4.652000000
H    -4.059000000    -3.591000000     4.045000000
H    -3.482000000    -2.192000000     4.094000000
O     3.163000000    -3.117000000    -3.590000000
H     3.150000000    -3.187000000    -4.544000000
H     2.547000000    -2.411000000    -3.393000000
O    -1.563000000    -4.264000000    -3.283000000
H    -2.457000000    -4.585000000    -3.400000000
H    -1.008000000    -4.986000000    -3.579000000
O     4.191000000    -0.699000000    -0.666000000
H     4.500000000    -0.500000000    -1.550000000
H     3.955000000     0.152000000    -0.297000000
O    -0.523000000    -3.921000000     3.157000000
H    -0.595000000    -4.232000000     4.059000000
H    -1.370000000    -4.130000000     2.764000000
O    -2.933000000     1.290000000    -1.834000000
H    -2.412000000     0.915000000    -2.544000000
H    -2.825000000     2.236000000    -1.931000000
O     0.637000000     4.944000000    -5.123000000
H     0.636000000     5.061000000    -6.073000000
H     0.565000000     3.998000000    -4.999000000
O    -6.401000000    -0.527000000    -0.780000000
H    -6.473000000    -0.101000000     0.074000000
H    -6.404000000     0.195000000    -1.409000000
O     1.661000000    -2.291000000     2.839000000
H     0.867000000    -2.823000000     2.892000000
H     1.928000000    -2.168000000     3.750000000
O     3.309000000     3.863000000     0.091000000
H     4.163000000     4.182000000    -0.203000000
H     2.772000000     3.854000000    -0.701000000
O     7.297000000     0.616000000    -2.387000000
H     7.820000000     0.979000000    -3.102000000
H     6.432000000     0.473000000    -2.772000000
O     2.450000000     1.863000000     5.529000000
H     1.850000000     2.608000000     5.567000000
H     2.404000000     1.566000000     4.620000000
O     2.454000000    -1.123000000    -6.099000000
H     2.068000000    -1.076000000    -5.225000000
H     1.763000000    -0.810000000    -6.683000000
O     3.216000000    -4.872000000    -1.595000000
H     3.510000000    -4.184000000    -2.192000000
H     2.849000000    -4.401000000    -0.848000000
O    -0.190000000     5.149000000     0.884000000
H    -0.533000000     4.866000000     0.037000000
H     0.515000000     5.758000000     0.666000000
O    -3.200000000    -4.235000000     1.740000000
H    -3.083000000    -5.153000000     1.984000000
H    -3.213000000    -4.242000000     0.783000000
O    -0.847000000     2.302000000     3.917000000
H    -0.793000000     3.043000000     4.520000000
H    -0.125000000     2.439000000     3.304000000
O    -6.310000000    -2.928000000     0.400000000
H    -5.906000000    -2.766000000     1.253000000
H    -6.348000000    -2.066000000    -0.014000000
O     0.069000000    -2.167000000     6.904000000
H    -0.401000000    -2.896000000     7.310000000
H    -0.144000000    -1.411000000     7.451000000
O     3.169000000    -3.156000000     0.776000000
H     2.733000000    -2.828000000     1.562000000
H     3.443000000    -2.368000000     0.307000000
