158
-3029.78391
C     1.214000000     0.087000000     0.758000000
H     2.038000000     0.304000000     1.433000000
C     0.016000000     0.617000000     1.106000000
H     0.022000000     1.172000000     2.040000000
C    -1.127000000     0.473000000     0.294000000
H    -2.022000000     0.944000000     0.563000000
C    -1.014000000    -0.260000000    -0.879000000
H    -1.917000000    -0.467000000    -1.448000000
C     0.259000000    -0.856000000    -1.197000000
H     0.280000000    -1.507000000    -2.067000000
C     1.394000000    -0.690000000    -0.404000000
C     2.724000000    -1.418000000    -0.777000000
O     2.878000000    -2.015000000    -1.844000000
O     3.665000000    -1.230000000    -0.061000000
O     6.523000000     0.646000000    -1.329000000
H     7.397000000     0.874000000    -1.013000000
H     5.928000000     1.147000000    -0.771000000
O    -4.949000000    -0.165000000     0.516000000
H    -5.532000000    -0.845000000     0.179000000
H    -4.924000000    -0.317000000     1.461000000
O     4.618000000    -4.531000000    -1.703000000
H     4.334000000    -4.214000000    -2.561000000
H     4.733000000    -3.738000000    -1.181000000
O     0.439000000     0.427000000     6.425000000
H     0.994000000     0.323000000     7.197000000
H    -0.347000000    -0.082000000     6.625000000
O     0.576000000     6.069000000     0.888000000
H    -0.116000000     5.411000000     0.832000000
H     1.389000000     5.569000000     0.810000000
O    -4.019000000     4.179000000     1.215000000
H    -4.332000000     3.512000000     0.604000000
H    -3.171000000     4.448000000     0.861000000
O    -5.232000000     4.097000000    -2.211000000
H    -6.035000000     3.825000000    -2.657000000
H    -5.024000000     3.367000000    -1.627000000
O    -4.733000000     0.703000000    -3.508000000
H    -4.181000000     0.035000000    -3.915000000
H    -4.556000000     1.499000000    -4.010000000
O     4.033000000    -0.803000000     4.443000000
H     3.832000000    -1.254000000     5.263000000
H     3.687000000    -1.379000000     3.762000000
O     2.586000000    -3.650000000    -3.838000000
H     2.642000000    -2.975000000    -3.161000000
H     1.667000000    -3.644000000    -4.107000000
O     0.604000000    -1.303000000    -7.290000000
H     1.525000000    -1.193000000    -7.525000000
H     0.474000000    -0.712000000    -6.548000000
O     4.062000000     0.100000000    -5.404000000
H     4.426000000    -0.479000000    -4.734000000
H     3.228000000     0.395000000    -5.038000000
O    -2.696000000    -1.349000000     3.422000000
H    -3.579000000    -0.981000000     3.410000000
H    -2.137000000    -0.621000000     3.694000000
O     1.154000000    -4.352000000    -1.083000000
H     1.914000000    -3.983000000    -1.532000000
H     0.471000000    -4.381000000    -1.753000000
O     4.036000000     4.812000000    -0.181000000
H     3.947000000     4.318000000    -0.996000000
H     3.629000000     4.255000000     0.482000000
O     5.021000000    -1.415000000    -3.290000000
H     4.236000000    -1.768000000    -2.870000000
H     5.328000000    -0.735000000    -2.689000000
O     0.013000000    -4.985000000     2.341000000
H     0.745000000    -5.087000000     1.733000000
H    -0.180000000    -4.048000000     2.329000000
O     1.158000000     2.853000000    -1.356000000
H     0.849000000     3.648000000    -1.791000000
H     0.373000000     2.479000000    -0.956000000
O    -5.694000000     4.690000000     3.346000000
H    -5.255000000     4.303000000     2.588000000
H    -6.592000000     4.364000000     3.295000000
O     2.794000000    -2.223000000     2.423000000
H     2.489000000    -3.077000000     2.116000000
H     3.029000000    -1.751000000     1.625000000
O    -7.834000000     1.667000000     0.208000000
H    -6.909000000     1.439000000     0.307000000
H    -8.178000000     1.011000000    -0.398000000
O     5.288000000    -5.283000000     1.639000000
H     5.440000000    -5.807000000     2.426000000
H     5.116000000    -4.401000000     1.968000000
O    -1.445000000    -3.347000000    -3.856000000
H    -1.764000000    -3.730000000    -3.039000000
H    -1.114000000    -4.092000000    -4.357000000
O     2.598000000    -4.861000000     1.028000000
H     3.445000000    -5.205000000     0.744000000
H     2.110000000    -4.725000000     0.216000000
O    -5.521000000    -0.828000000     2.982000000
H    -6.100000000    -1.440000000     3.438000000
H    -5.795000000     0.036000000     3.292000000
O    -5.569000000     0.727000000     5.657000000
H    -4.656000000     0.814000000     5.931000000
H    -5.993000000     0.264000000     6.379000000
O     2.390000000     0.655000000    -3.387000000
H     1.714000000     1.184000000    -2.962000000
H     2.366000000    -0.182000000    -2.923000000
O    -4.915000000    -4.018000000     0.062000000
H    -3.989000000    -3.905000000     0.273000000
H    -4.920000000    -4.605000000    -0.694000000
O     3.677000000     3.132000000    -2.249000000
H     3.769000000     3.087000000    -3.200000000
H     2.822000000     2.740000000    -2.072000000
O     4.558000000    -7.030000000    -0.226000000
H     5.043000000    -6.432000000     0.343000000
H     4.328000000    -6.500000000    -0.989000000
O    -1.220000000     2.181000000     4.737000000
H    -1.802000000     2.857000000     5.085000000
H    -0.689000000     1.913000000     5.486000000
O    -4.311000000     2.072000000    -0.881000000
H    -4.495000000     1.256000000    -0.415000000
H    -3.536000000     1.878000000    -1.407000000
O     6.274000000    -1.839000000     3.116000000
H     5.654000000    -1.909000000     2.390000000
H     5.806000000    -1.337000000     3.783000000
O     2.618000000     2.835000000     0.978000000
H     1.945000000     3.195000000     1.556000000
H     2.151000000     2.625000000     0.169000000
O    -1.915000000    -3.895000000    -0.818000000
H    -1.387000000    -3.505000000    -0.122000000
H    -2.165000000    -4.754000000    -0.477000000
O     0.551000000     3.726000000     2.677000000
H    -0.204000000     3.181000000     2.898000000
H     0.711000000     4.244000000     3.467000000
O    -3.197000000    -1.323000000    -4.412000000
H    -3.062000000    -1.107000000    -5.335000000
H    -2.574000000    -2.029000000    -4.237000000
O     5.989000000    -2.535000000    -0.169000000
H     6.696000000    -1.946000000     0.095000000
H     5.222000000    -1.968000000    -0.249000000
O    -1.911000000     5.049000000    -0.717000000
H    -2.023000000     4.551000000    -1.526000000
H    -1.908000000     5.964000000    -0.997000000
O     7.171000000     1.790000000     2.155000000
H     6.818000000     2.594000000     2.536000000
H     6.408000000     1.345000000     1.784000000
O    -2.252000000     2.753000000    -2.658000000
H    -2.836000000     3.070000000    -3.347000000
H    -1.808000000     2.000000000    -3.049000000
O     1.321000000    -2.673000000     4.762000000
H     1.168000000    -1.928000000     5.344000000
H     1.789000000    -2.301000000     4.015000000
O     4.748000000     1.035000000     1.119000000
H     4.129000000     1.722000000     1.370000000
H     4.224000000     0.415000000     0.612000000
O     3.106000000     1.945000000     5.031000000
H     2.174000000     1.730000000     5.076000000
H     3.546000000     1.096000000     4.990000000
O    -7.172000000     0.165000000    -2.506000000
H    -7.097000000    -0.641000000    -1.996000000
H    -6.271000000     0.384000000    -2.743000000
O     7.085000000    -2.956000000    -5.114000000
H     7.965000000    -2.619000000    -4.944000000
H     6.568000000    -2.664000000    -4.363000000
O    -1.270000000     0.574000000    -3.949000000
H    -0.981000000     0.858000000    -4.816000000
H    -1.900000000    -0.125000000    -4.123000000
O    -0.724000000    -2.339000000     1.672000000
H    -0.614000000    -1.556000000     1.133000000
H    -1.360000000    -2.083000000     2.340000000
