158
-3061.42856
C     0.160000000     0.765000000     1.262000000
H     0.091000000     1.019000000     2.317000000
C     0.698000000    -0.521000000     1.002000000
H     1.144000000    -1.056000000     1.837000000
C     0.521000000    -1.092000000    -0.287000000
H     0.928000000    -2.149000000    -0.331000000
C    -0.123000000    -0.387000000    -1.314000000
H    -0.432000000    -0.771000000    -2.283000000
C    -0.599000000     0.951000000    -1.090000000
H    -1.060000000     1.608000000    -1.823000000
C    -0.506000000     1.456000000     0.210000000
C    -1.264000000     2.710000000     0.624000000
O    -0.760000000     3.359000000     1.578000000
O    -2.117000000     3.177000000    -0.106000000
O     5.178000000     1.038000000     1.989000000
H     5.100000000     0.178000000     1.575000000
H     4.384000000     1.122000000     2.517000000
O    -0.110000000    -4.433000000    -5.221000000
H    -0.581000000    -5.264000000    -5.282000000
H    -0.796000000    -3.766000000    -5.255000000
O    -2.450000000     3.463000000    -2.984000000
H    -2.326000000     3.276000000    -2.054000000
H    -3.228000000     4.020000000    -3.016000000
O    -4.428000000     4.588000000    -0.689000000
H    -3.582000000     4.200000000    -0.463000000
H    -4.311000000     5.525000000    -0.532000000
O    -2.342000000    -0.562000000     6.848000000
H    -1.813000000    -0.195000000     6.140000000
H    -1.725000000    -1.079000000     7.365000000
O     2.711000000     5.676000000     3.760000000
H     2.073000000     5.753000000     3.051000000
H     2.234000000     5.238000000     4.465000000
O    -2.019000000     3.784000000     3.930000000
H    -1.571000000     3.647000000     3.095000000
H    -2.894000000     3.419000000     3.795000000
O    -6.971000000     4.140000000     1.038000000
H    -7.652000000     4.811000000     0.997000000
H    -6.151000000     4.624000000     0.941000000
O    -0.992000000     7.561000000    -0.197000000
H    -1.019000000     6.681000000    -0.574000000
H    -0.843000000     7.416000000     0.738000000
O    -1.835000000    -2.546000000    -5.393000000
H    -1.605000000    -1.686000000    -5.745000000
H    -2.436000000    -2.358000000    -4.673000000
O    -4.277000000     2.890000000     3.022000000
H    -4.428000000     2.682000000     2.100000000
H    -5.097000000     2.657000000     3.457000000
O    -0.656000000     2.287000000    -4.541000000
H    -0.546000000     2.740000000    -5.377000000
H    -1.355000000     2.767000000    -4.097000000
O     4.224000000    -1.657000000    -5.075000000
H     4.990000000    -1.231000000    -4.691000000
H     3.517000000    -1.487000000    -4.453000000
O     2.698000000     1.380000000     3.916000000
H     3.069000000     1.935000000     4.601000000
H     2.423000000     1.993000000     3.234000000
O    -2.618000000    -0.795000000     0.937000000
H    -1.728000000    -0.688000000     0.600000000
H    -2.536000000    -0.645000000     1.879000000
O     4.134000000    -2.048000000     1.783000000
H     3.213000000    -2.063000000     2.044000000
H     4.415000000    -2.960000000     1.842000000
O     4.963000000    -1.144000000    -0.514000000
H     4.794000000    -1.511000000     0.354000000
H     5.761000000    -1.581000000    -0.809000000
O    -0.727000000    -5.320000000    -2.274000000
H    -0.997000000    -4.994000000    -1.415000000
H    -0.293000000    -4.573000000    -2.687000000
O    -1.168000000     3.358000000     6.488000000
H    -1.576000000     3.347000000     5.622000000
H    -1.242000000     4.267000000     6.776000000
O     0.023000000     5.747000000     2.539000000
H    -0.199000000     4.910000000     2.131000000
H    -0.628000000     5.854000000     3.233000000
O     2.634000000    -1.137000000     4.906000000
H     2.813000000    -0.301000000     4.476000000
H     3.413000000    -1.666000000     4.736000000
O     5.340000000    -3.951000000    -2.485000000
H     4.580000000    -3.923000000    -3.065000000
H     5.291000000    -3.135000000    -1.987000000
O     4.255000000    -4.711000000     3.362000000
H     4.844000000    -4.048000000     3.723000000
H     3.406000000    -4.273000000     3.307000000
O     1.399000000    -3.366000000    -3.121000000
H     1.673000000    -2.449000000    -3.157000000
H     1.119000000    -3.567000000    -4.014000000
O    -0.482000000     0.741000000     5.302000000
H    -0.591000000     1.655000000     5.563000000
H     0.466000000     0.620000000     5.245000000
O    -3.010000000    -6.462000000    -3.229000000
H    -2.332000000    -6.281000000    -2.578000000
H    -3.377000000    -7.305000000    -2.964000000
O     1.907000000     6.423000000    -0.852000000
H     1.008000000     6.092000000    -0.856000000
H     2.087000000     6.615000000     0.068000000
O    -2.266000000     0.516000000    -6.257000000
H    -3.153000000     0.171000000    -6.160000000
H    -1.939000000     0.591000000    -5.360000000
O    -1.430000000     6.101000000    -3.927000000
H    -2.248000000     5.676000000    -4.182000000
H    -1.182000000     5.673000000    -3.107000000
O    -2.423000000    -3.911000000    -0.315000000
H    -3.266000000    -4.159000000     0.065000000
H    -1.863000000    -3.733000000     0.441000000
O    -4.228000000    -1.888000000    -1.003000000
H    -3.491000000    -2.471000000    -1.182000000
H    -3.989000000    -1.442000000    -0.190000000
O    -2.511000000    -0.344000000     3.608000000
H    -1.940000000     0.332000000     3.972000000
H    -3.335000000    -0.243000000     4.085000000
O     1.917000000     3.199000000     2.029000000
H     2.299000000     3.376000000     1.169000000
H     0.981000000     3.097000000     1.858000000
O     0.325000000    -0.190000000    -4.703000000
H    -0.071000000     0.673000000    -4.578000000
H     0.837000000    -0.105000000    -5.507000000
O     1.374000000     3.712000000    -3.265000000
H     1.361000000     4.550000000    -3.728000000
H     0.736000000     3.171000000    -3.731000000
O     1.750000000    -4.856000000    -0.128000000
H     1.440000000    -4.664000000    -1.013000000
H     1.928000000    -5.796000000    -0.135000000
O    -5.932000000     3.428000000    -2.807000000
H    -5.264000000     4.005000000    -3.176000000
H    -5.799000000     3.482000000    -1.861000000
O    -1.395000000    -4.906000000     2.577000000
H    -1.603000000    -5.754000000     2.970000000
H    -1.819000000    -4.266000000     3.148000000
O    -0.013000000    -2.540000000     5.198000000
H     0.530000000    -2.134000000     4.523000000
H    -0.898000000    -2.529000000     4.834000000
O     2.506000000    -0.547000000    -3.211000000
H     2.636000000     0.185000000    -2.608000000
H     1.671000000    -0.359000000    -3.640000000
O     2.674000000     3.133000000    -0.723000000
H     2.448000000     3.694000000    -1.465000000
H     2.962000000     2.312000000    -1.122000000
O     1.941000000    -3.902000000     2.313000000
H     1.831000000    -4.348000000     1.473000000
H     1.136000000    -4.093000000     2.793000000
O     4.107000000     1.246000000    -1.865000000
H     4.162000000     0.425000000    -1.374000000
H     4.990000000     1.613000000    -1.816000000
O    -4.276000000    -2.253000000    -3.746000000
H    -4.142000000    -2.128000000    -2.806000000
H    -5.223000000    -2.181000000    -3.865000000
O    -4.032000000     1.342000000     0.415000000
H    -3.490000000     0.559000000     0.506000000
H    -3.417000000     2.032000000     0.165000000
O    -0.361000000     5.019000000    -1.442000000
H    -0.906000000     4.436000000    -0.913000000
H     0.210000000     4.431000000    -1.936000000
O    -7.006000000     1.519000000     0.434000000
H    -6.071000000     1.527000000     0.231000000
H    -7.189000000     2.403000000     0.753000000
O    -3.544000000     6.805000000     1.416000000
H    -4.127000000     7.561000000     1.344000000
H    -3.945000000     6.257000000     2.090000000
