158
-3030.99225
C     0.016000000     1.004000000     1.071000000
H    -0.081000000     1.562000000     1.999000000
C     0.178000000    -0.416000000     1.211000000
H     0.365000000    -0.781000000     2.217000000
C     0.020000000    -1.266000000     0.125000000
H     0.132000000    -2.335000000     0.271000000
C    -0.079000000    -0.693000000    -1.173000000
H    -0.103000000    -1.344000000    -2.043000000
C    -0.194000000     0.714000000    -1.282000000
H    -0.349000000     1.185000000    -2.249000000
C    -0.095000000     1.555000000    -0.222000000
C    -0.199000000     3.076000000    -0.380000000
O     0.245000000     3.727000000     0.490000000
O    -0.618000000     3.634000000    -1.380000000
O    -3.379000000     2.051000000     4.133000000
H    -3.414000000     1.094000000     4.105000000
H    -4.269000000     2.329000000     3.914000000
O    -2.787000000    -5.254000000    -3.207000000
H    -2.177000000    -4.531000000    -3.058000000
H    -3.019000000    -5.556000000    -2.329000000
O    -3.438000000     4.221000000    -0.867000000
H    -3.294000000     4.612000000    -0.005000000
H    -2.558000000     4.081000000    -1.217000000
O     1.784000000    -4.081000000     4.263000000
H     2.577000000    -3.544000000     4.282000000
H     2.081000000    -4.955000000     4.516000000
O    -1.594000000     5.891000000     3.135000000
H    -1.071000000     5.188000000     3.521000000
H    -1.107000000     6.149000000     2.352000000
O    -0.111000000    -4.463000000    -2.066000000
H     0.496000000    -5.143000000    -2.357000000
H     0.167000000    -4.260000000    -1.173000000
O    -2.920000000     7.819000000    -0.153000000
H    -3.227000000     7.095000000     0.393000000
H    -2.642000000     7.402000000    -0.969000000
O    -4.685000000     6.550000000    -2.291000000
H    -4.138000000     5.903000000    -1.846000000
H    -4.359000000     6.561000000    -3.191000000
O    -3.444000000     1.067000000    -2.648000000
H    -4.357000000     1.134000000    -2.926000000
H    -3.416000000     1.517000000    -1.804000000
O     5.185000000     0.639000000     1.320000000
H     4.428000000     0.688000000     0.736000000
H     5.487000000     1.544000000     1.398000000
O     1.683000000    -4.201000000     0.223000000
H     2.393000000    -3.566000000     0.316000000
H     2.062000000    -5.029000000     0.517000000
O     0.221000000     1.073000000     5.834000000
H     1.093000000     0.903000000     6.192000000
H    -0.026000000     0.253000000     5.406000000
O     2.914000000     0.000000000    -0.298000000
H     3.118000000    -0.785000000     0.211000000
H     1.964000000    -0.027000000    -0.411000000
O    -0.365000000    -4.524000000     5.927000000
H     0.000000000    -4.788000000     6.772000000
H     0.372000000    -4.128000000     5.461000000
O    -2.625000000    -1.612000000    -2.981000000
H    -2.881000000    -2.026000000    -2.156000000
H    -2.936000000    -0.710000000    -2.903000000
O    -0.634000000    -1.420000000     5.211000000
H    -1.497000000    -1.559000000     4.821000000
H    -0.025000000    -1.489000000     4.475000000
O     1.258000000    -6.383000000    -3.170000000
H     2.067000000    -6.821000000    -2.903000000
H     0.811000000    -7.024000000    -3.723000000
O    -0.440000000     6.196000000     0.733000000
H    -0.587000000     6.488000000    -0.166000000
H    -0.528000000     5.243000000     0.693000000
O     3.813000000     0.218000000     3.831000000
H     3.551000000     1.055000000     4.215000000
H     4.090000000     0.438000000     2.941000000
O     2.107000000    -2.096000000    -5.258000000
H     1.353000000    -2.431000000    -4.774000000
H     2.693000000    -2.848000000    -5.340000000
O     2.707000000     2.736000000     1.242000000
H     2.653000000     1.857000000     0.868000000
H     1.935000000     3.189000000     0.903000000
O    -0.912000000     3.326000000     4.352000000
H    -1.840000000     3.118000000     4.246000000
H    -0.546000000     2.564000000     4.800000000
O     2.712000000    -6.783000000     0.548000000
H     2.278000000    -7.549000000     0.924000000
H     3.572000000    -6.765000000     0.968000000
O     5.298000000     3.422000000     0.565000000
H     4.377000000     3.231000000     0.745000000
H     5.303000000     4.339000000     0.289000000
O     3.761000000     1.607000000    -2.575000000
H     3.261000000     2.423000000    -2.599000000
H     3.262000000     1.038000000    -1.989000000
O    -4.779000000     2.117000000     0.123000000
H    -5.530000000     1.997000000    -0.459000000
H    -4.332000000     2.890000000    -0.220000000
O    -3.320000000    -6.193000000    -0.655000000
H    -2.582000000    -6.578000000    -0.182000000
H    -3.793000000    -5.691000000     0.009000000
O     0.984000000     4.459000000     3.002000000
H     0.367000000     3.876000000     3.446000000
H     0.717000000     4.436000000     2.084000000
O    -3.362000000    -1.409000000    -5.702000000
H    -3.282000000    -1.633000000    -4.775000000
H    -2.909000000    -0.570000000    -5.786000000
O    -0.441000000     6.992000000    -4.278000000
H    -0.160000000     6.463000000    -5.024000000
H    -0.381000000     7.895000000    -4.589000000
O     4.069000000    -2.351000000     3.932000000
H     3.856000000    -1.432000000     3.767000000
H     5.022000000    -2.395000000     3.847000000
O    -0.707000000    -3.280000000    -4.405000000
H    -0.556000000    -3.666000000    -3.542000000
H    -1.443000000    -2.682000000    -4.274000000
O     2.623000000     6.984000000     2.251000000
H     2.469000000     6.048000000     2.126000000
H     2.941000000     7.056000000     3.151000000
O     3.825000000    -2.175000000     0.846000000
H     4.357000000    -2.699000000     0.248000000
H     3.991000000    -2.554000000     1.709000000
O     1.010000000     2.703000000    -4.904000000
H     0.296000000     3.132000000    -5.376000000
H     1.400000000     2.110000000    -5.547000000
O    -3.510000000    -2.625000000    -0.524000000
H    -3.844000000    -2.121000000     0.218000000
H    -2.953000000    -3.295000000    -0.128000000
O    -3.345000000    -4.238000000     1.823000000
H    -3.660000000    -4.574000000     2.663000000
H    -2.410000000    -4.087000000     1.961000000
O     2.834000000     2.601000000     4.569000000
H     2.439000000     2.769000000     3.714000000
H     2.404000000     3.221000000     5.158000000
O     0.630000000    -2.186000000     7.438000000
H     0.094000000    -2.117000000     6.648000000
H     0.667000000    -3.125000000     7.620000000
O     1.807000000     0.341000000    -6.236000000
H     1.743000000    -0.495000000    -5.776000000
H     1.441000000     0.167000000    -7.103000000
O    -3.797000000     5.803000000     1.332000000
H    -3.274000000     6.007000000     2.108000000
H    -4.497000000     5.237000000     1.657000000
O     1.908000000     3.845000000    -2.674000000
H     1.324000000     3.776000000    -3.429000000
H     1.370000000     4.242000000    -1.990000000
O    -3.439000000    -0.899000000     4.794000000
H    -4.315000000    -1.266000000     4.679000000
H    -3.299000000    -0.903000000     5.741000000
O    -1.411000000    -7.208000000     0.834000000
H    -1.661000000    -6.810000000     1.668000000
H    -0.454000000    -7.207000000     0.845000000
O    -1.441000000     0.838000000    -4.598000000
H    -1.898000000     1.118000000    -3.805000000
H    -0.517000000     0.827000000    -4.350000000
O    -0.564000000    -4.585000000     2.256000000
H     0.001000000    -4.652000000     3.026000000
H    -0.044000000    -4.093000000     1.620000000
O    -1.425000000     6.080000000    -1.879000000
H    -1.263000000     5.148000000    -1.731000000
H    -0.745000000     6.346000000    -2.498000000
O     4.827000000    -3.574000000    -1.407000000
H     4.672000000    -2.830000000    -1.989000000
H     4.874000000    -4.330000000    -1.992000000
