158
-3051.91156
C     0.898000000     0.345000000     1.143000000
H     1.549000000     0.610000000     1.972000000
C     1.231000000    -0.513000000     0.124000000
H     2.228000000    -0.945000000     0.114000000
C     0.289000000    -0.855000000    -0.858000000
H     0.585000000    -1.688000000    -1.551000000
C    -0.987000000    -0.246000000    -0.831000000
H    -1.629000000    -0.553000000    -1.652000000
C    -1.291000000     0.656000000     0.152000000
H    -2.293000000     1.078000000     0.158000000
C    -0.405000000     0.954000000     1.159000000
C    -0.673000000     2.107000000     2.130000000
O    -0.634000000     1.954000000     3.301000000
O    -0.837000000     3.293000000     1.682000000
O     3.904000000    -1.217000000     2.369000000
H     4.842000000    -1.298000000     2.540000000
H     3.543000000    -0.855000000     3.178000000
O    -0.154000000    -4.991000000    -6.462000000
H     0.163000000    -4.184000000    -6.056000000
H     0.491000000    -5.654000000    -6.214000000
O    -0.395000000     0.766000000     7.352000000
H     0.498000000     0.726000000     7.010000000
H    -0.336000000     0.366000000     8.220000000
O    -4.086000000    -1.240000000     1.063000000
H    -3.527000000    -1.295000000     1.837000000
H    -4.179000000    -2.146000000     0.768000000
O     3.698000000    -6.220000000    -2.459000000
H     4.289000000    -6.142000000    -1.710000000
H     3.151000000    -6.978000000    -2.254000000
O    -2.317000000     6.668000000     0.264000000
H    -2.002000000     6.235000000    -0.529000000
H    -2.297000000     7.601000000     0.052000000
O    -3.044000000     2.244000000     4.699000000
H    -2.391000000     2.157000000     4.005000000
H    -3.510000000     1.408000000     4.696000000
O    -5.473000000     3.604000000     2.783000000
H    -5.658000000     2.818000000     2.268000000
H    -4.745000000     4.024000000     2.326000000
O     4.801000000    -5.111000000    -4.603000000
H     4.285000000    -5.687000000    -4.039000000
H     4.394000000    -4.250000000    -4.501000000
O     1.850000000     7.671000000     0.662000000
H     1.548000000     6.858000000     1.068000000
H     1.808000000     7.499000000    -0.278000000
O     2.994000000     4.421000000     0.697000000
H     2.837000000     4.418000000     1.641000000
H     2.152000000     4.177000000     0.313000000
O    -6.251000000    -0.580000000     2.743000000
H    -6.751000000    -1.390000000     2.645000000
H    -5.427000000    -0.749000000     2.286000000
O    -0.173000000     3.010000000    -4.368000000
H    -0.055000000     3.067000000    -5.316000000
H    -1.122000000     3.018000000    -4.243000000
O     2.810000000     0.170000000     4.324000000
H     2.466000000    -0.631000000     4.719000000
H     2.152000000     0.836000000     4.523000000
O    -1.927000000    -5.090000000    -0.381000000
H    -1.671000000    -5.014000000    -1.300000000
H    -1.568000000    -4.304000000     0.032000000
O    -2.373000000    -3.180000000    -5.046000000
H    -2.921000000    -2.415000000    -4.871000000
H    -2.687000000    -3.512000000    -5.888000000
O     3.707000000    -3.388000000     0.474000000
H     3.716000000    -2.584000000     0.995000000
H     4.317000000    -3.216000000    -0.243000000
O     1.218000000    -6.206000000     0.380000000
H     2.113000000    -6.170000000     0.717000000
H     1.159000000    -5.465000000    -0.223000000
O    -2.832000000     2.190000000     7.706000000
H    -2.004000000     1.717000000     7.623000000
H    -3.127000000     2.318000000     6.804000000
O    -0.062000000     5.803000000     1.715000000
H    -0.384000000     4.903000000     1.767000000
H    -0.720000000     6.262000000     1.193000000
O    -2.483000000     5.113000000     4.422000000
H    -2.701000000     5.140000000     3.491000000
H    -2.731000000     4.231000000     4.701000000
O     1.084000000    -1.819000000     5.393000000
H     0.196000000    -1.616000000     5.099000000
H     0.962000000    -2.279000000     6.224000000
O     1.848000000    -5.031000000    -4.189000000
H     1.819000000    -4.074000000    -4.183000000
H     2.310000000    -5.262000000    -3.383000000
O    -0.900000000    -4.432000000    -2.908000000
H    -0.162000000    -3.838000000    -3.044000000
H    -1.519000000    -4.206000000    -3.602000000
O     1.657000000    -2.633000000    -7.185000000
H     1.188000000    -1.801000000    -7.116000000
H     1.204000000    -3.105000000    -7.884000000
O     2.881000000    -0.235000000    -2.922000000
H     3.422000000    -0.071000000    -2.150000000
H     2.376000000     0.570000000    -3.037000000
O    -1.583000000    -0.374000000     4.884000000
H    -1.319000000     0.498000000     4.590000000
H    -1.672000000    -0.291000000     5.833000000
O     0.477000000     4.911000000     4.873000000
H    -0.265000000     4.985000000     4.274000000
H     0.320000000     5.585000000     5.534000000
O    -2.818000000    -0.631000000    -4.460000000
H    -2.874000000     0.071000000    -5.109000000
H    -3.382000000    -0.341000000    -3.744000000
O    -1.664000000     5.237000000    -1.782000000
H    -2.085000000     4.577000000    -2.332000000
H    -1.169000000     5.780000000    -2.396000000
O    -0.389000000    -3.125000000     1.219000000
H    -1.057000000    -2.856000000     1.850000000
H    -0.289000000    -2.370000000     0.639000000
O    -2.409000000    -2.142000000     2.982000000
H    -2.641000000    -2.869000000     3.560000000
H    -2.149000000    -1.437000000     3.576000000
O     0.974000000     2.091000000     5.325000000
H     0.919000000     3.043000000     5.410000000
H     0.347000000     1.875000000     4.635000000
O     1.841000000     2.255000000    -2.568000000
H     1.156000000     2.200000000    -3.233000000
H     1.395000000     2.591000000    -1.791000000
O    -0.223000000    -7.007000000    -2.004000000
H    -0.450000000    -6.200000000    -2.466000000
H     0.426000000    -6.737000000    -1.354000000
O    -4.619000000     0.766000000    -2.777000000
H    -4.226000000     1.585000000    -2.475000000
H    -5.418000000     0.678000000    -2.256000000
O    -0.520000000    -1.149000000    -5.805000000
H    -1.306000000    -1.369000000    -5.305000000
H    -0.658000000    -0.243000000    -6.082000000
O     3.080000000     4.447000000     4.327000000
H     3.362000000     3.820000000     4.992000000
H     2.155000000     4.602000000     4.521000000
O    -3.721000000     3.199000000    -0.843000000
H    -4.383000000     2.704000000    -0.361000000
H    -3.360000000     3.807000000    -0.198000000
O     1.284000000    -2.328000000    -4.006000000
H     1.808000000    -1.619000000    -3.633000000
H     0.992000000    -1.989000000    -4.853000000
O     4.719000000     0.542000000    -0.369000000
H     5.214000000     1.361000000    -0.376000000
H     4.068000000     0.661000000     0.323000000
O     5.293000000     1.751000000     4.431000000
H     4.973000000     2.419000000     5.036000000
H     4.508000000     1.272000000     4.165000000
O     3.525000000    -5.838000000     1.878000000
H     3.990000000    -5.656000000     2.694000000
H     3.378000000    -4.977000000     1.488000000
O     4.533000000    -2.464000000    -3.530000000
H     4.895000000    -2.394000000    -2.647000000
H     4.155000000    -1.602000000    -3.704000000
O     5.702000000    -1.924000000    -1.021000000
H     5.344000000    -1.082000000    -0.738000000
H     6.511000000    -2.021000000    -0.518000000
O     0.706000000     3.874000000    -0.328000000
H     0.102000000     4.385000000    -0.866000000
H     0.147000000     3.452000000     0.325000000
O    -5.271000000     1.370000000     0.473000000
H    -5.924000000     1.048000000    -0.148000000
H    -4.759000000     0.596000000     0.705000000
O    -3.224000000     4.617000000     1.654000000
H    -2.473000000     4.063000000     1.866000000
H    -2.850000000     5.354000000     1.172000000
