158
-3028.73558
C     0.607000000    -1.317000000    -0.161000000
H     1.149000000    -2.253000000    -0.063000000
C    -0.172000000    -0.906000000     0.896000000
H    -0.214000000    -1.488000000     1.814000000
C    -0.667000000     0.381000000     0.905000000
H    -1.151000000     0.741000000     1.826000000
C    -0.376000000     1.286000000    -0.058000000
H    -0.656000000     2.326000000     0.087000000
C     0.262000000     0.871000000    -1.179000000
H     0.303000000     1.514000000    -2.055000000
C     0.714000000    -0.475000000    -1.279000000
C     1.556000000    -1.027000000    -2.488000000
O     1.939000000    -0.197000000    -3.344000000
O     1.601000000    -2.180000000    -2.709000000
O     1.012000000     1.168000000    -5.295000000
H     0.092000000     0.950000000    -5.144000000
H     1.489000000     0.664000000    -4.636000000
O    -3.147000000     1.655000000     4.699000000
H    -2.234000000     1.479000000     4.925000000
H    -3.402000000     0.920000000     4.141000000
O     3.752000000     0.007000000     0.079000000
H     3.686000000     0.815000000    -0.430000000
H     3.342000000     0.220000000     0.918000000
O    -4.312000000     0.563000000     0.647000000
H    -4.127000000     1.452000000     0.949000000
H    -3.520000000     0.299000000     0.179000000
O    -4.409000000     4.391000000     4.034000000
H    -4.731000000     5.284000000     4.156000000
H    -4.099000000     4.128000000     4.901000000
O    -4.155000000    -0.554000000     3.448000000
H    -4.357000000    -1.490000000     3.440000000
H    -4.160000000    -0.301000000     2.524000000
O     5.153000000    -2.731000000    -3.859000000
H     4.606000000    -1.952000000    -3.764000000
H     4.646000000    -3.431000000    -3.446000000
O    -3.317000000     2.727000000     1.905000000
H    -2.993000000     3.619000000     1.785000000
H    -3.391000000     2.624000000     2.854000000
O     0.995000000     4.705000000    -3.940000000
H     1.796000000     4.413000000    -4.377000000
H     0.630000000     5.366000000    -4.528000000
O    -0.714000000    -2.673000000    -3.997000000
H    -1.292000000    -2.698000000    -3.234000000
H     0.119000000    -2.347000000    -3.655000000
O     1.137000000    -1.277000000     5.870000000
H     0.400000000    -0.747000000     5.567000000
H     1.772000000    -0.639000000     6.196000000
O     1.410000000     4.665000000    -1.257000000
H     1.679000000     5.583000000    -1.244000000
H     0.912000000     4.573000000    -2.069000000
O     4.180000000    -4.985000000    -2.824000000
H     4.816000000    -5.062000000    -2.113000000
H     4.135000000    -5.863000000    -3.201000000
O     3.021000000    -5.252000000    -5.491000000
H     2.706000000    -5.012000000    -6.362000000
H     3.266000000    -4.420000000    -5.087000000
O     4.617000000    -0.042000000    -3.036000000
H     4.895000000     0.865000000    -3.163000000
H     3.706000000    -0.057000000    -3.331000000
O    -2.897000000    -2.715000000    -2.249000000
H    -3.656000000    -2.886000000    -2.806000000
H    -2.916000000    -1.769000000    -2.102000000
O     3.559000000     2.485000000    -0.989000000
H     3.963000000     2.631000000    -1.844000000
H     2.826000000     3.100000000    -0.962000000
O    -2.759000000    -0.927000000     6.242000000
H    -3.393000000    -1.428000000     6.755000000
H    -3.292000000    -0.435000000     5.618000000
O    -3.443000000     2.584000000    -1.640000000
H    -4.140000000     2.786000000    -1.017000000
H    -3.103000000     3.439000000    -1.904000000
O     2.286000000     1.417000000     1.925000000
H     1.502000000     0.894000000     1.753000000
H     2.006000000     2.322000000     1.784000000
O    -3.702000000     1.581000000    -4.133000000
H    -3.800000000     1.902000000    -3.236000000
H    -3.230000000     2.279000000    -4.587000000
O     3.506000000    -1.924000000     2.253000000
H     3.368000000    -2.219000000     3.153000000
H     2.638000000    -1.653000000     1.954000000
O    -0.395000000     2.979000000     3.182000000
H    -1.196000000     2.935000000     2.660000000
H     0.169000000     3.587000000     2.703000000
O    -2.566000000     5.295000000    -2.384000000
H    -1.719000000     5.246000000    -1.942000000
H    -2.408000000     4.914000000    -3.248000000
O    -1.866000000    -4.794000000    -0.724000000
H    -2.028000000    -5.539000000    -1.302000000
H    -1.925000000    -4.029000000    -1.297000000
O    -1.496000000     0.180000000    -4.964000000
H    -2.405000000     0.317000000    -4.699000000
H    -1.287000000    -0.702000000    -4.657000000
O    -2.918000000     5.376000000     1.499000000
H    -3.560000000     5.954000000     1.086000000
H    -2.830000000     5.713000000     2.390000000
O    -1.939000000     3.564000000    -4.597000000
H    -0.991000000     3.685000000    -4.540000000
H    -2.134000000     3.633000000    -5.531000000
O    -4.778000000    -3.456000000     3.348000000
H    -4.138000000    -4.019000000     2.912000000
H    -5.402000000    -3.226000000     2.659000000
O     1.920000000    -4.540000000    -1.470000000
H     2.669000000    -4.769000000    -2.020000000
H     1.589000000    -3.723000000    -1.844000000
O    -1.443000000    -5.773000000    -4.595000000
H    -1.352000000    -4.886000000    -4.246000000
H    -0.870000000    -5.789000000    -5.361000000
O     5.373000000    -1.853000000    -0.903000000
H     5.555000000    -1.364000000    -1.706000000
H     4.729000000    -1.320000000    -0.438000000
O     0.481000000    -5.482000000     2.819000000
H     0.299000000    -5.883000000     3.669000000
H    -0.358000000    -5.110000000     2.545000000
O    -2.513000000    -0.060000000    -1.484000000
H    -1.627000000    -0.051000000    -1.124000000
H    -2.779000000     0.859000000    -1.490000000
O    -6.521000000     4.187000000     2.339000000
H    -6.393000000     4.695000000     1.538000000
H    -5.664000000     4.192000000     2.766000000
O    -5.912000000     0.509000000    -1.500000000
H    -5.254000000     0.367000000    -0.820000000
H    -6.066000000     1.453000000    -1.491000000
O     5.115000000    -4.225000000     2.005000000
H     4.442000000    -4.901000000     2.081000000
H     4.625000000    -3.411000000     1.887000000
O     5.210000000     2.693000000    -3.329000000
H     5.448000000     3.612000000    -3.200000000
H     5.315000000     2.548000000    -4.269000000
O     3.697000000     0.714000000     4.017000000
H     3.183000000     1.221000000     3.389000000
H     4.268000000     0.169000000     3.475000000
O     2.628000000    -1.924000000    -6.259000000
H     2.140000000    -1.791000000    -5.446000000
H     2.409000000    -1.163000000    -6.796000000
O     2.723000000    -5.472000000     1.077000000
H     2.046000000    -5.329000000     1.737000000
H     2.427000000    -4.970000000     0.317000000
O     1.308000000     4.161000000     1.271000000
H     1.366000000     4.158000000     0.316000000
H     2.075000000     4.659000000     1.556000000
O    -2.554000000    -5.209000000     2.030000000
H    -2.394000000    -6.127000000     2.249000000
H    -2.430000000    -5.163000000     1.082000000
O     1.382000000    -6.988000000    -3.716000000
H     2.160000000    -6.884000000    -4.265000000
H     1.092000000    -6.092000000    -3.542000000
O    -1.363000000    -3.005000000    -6.686000000
H    -1.285000000    -3.007000000    -5.732000000
H    -0.895000000    -3.791000000    -6.966000000
O    -0.520000000     1.059000000     5.303000000
H    -0.349000000     1.816000000     4.743000000
H    -0.599000000     1.426000000     6.184000000
O     2.741000000     3.285000000    -5.781000000
H     2.197000000     2.529000000    -5.558000000
H     3.606000000     2.914000000    -5.956000000
O     5.720000000    -4.412000000    -0.411000000
H     5.625000000    -4.365000000     0.541000000
H     5.528000000    -3.525000000    -0.715000000
