158
-3036.78463
C    -0.141000000     1.181000000     0.922000000
H    -0.064000000     2.068000000     1.546000000
C     0.638000000    -0.010000000     1.150000000
H     1.296000000    -0.071000000     2.012000000
C     0.585000000    -1.120000000     0.294000000
H     1.170000000    -1.985000000     0.536000000
C    -0.184000000    -0.918000000    -0.913000000
H    -0.294000000    -1.782000000    -1.563000000
C    -0.931000000     0.246000000    -1.128000000
H    -1.531000000     0.291000000    -2.034000000
C    -0.902000000     1.329000000    -0.292000000
C    -1.477000000     2.722000000    -0.567000000
O    -1.165000000     3.671000000     0.078000000
O    -2.245000000     2.828000000    -1.546000000
O     4.307000000    -0.433000000     1.346000000
H     4.549000000     0.381000000     1.787000000
H     4.880000000    -0.470000000     0.580000000
O    -1.718000000     4.969000000    -2.997000000
H    -1.596000000     4.147000000    -2.523000000
H    -2.659000000     5.009000000    -3.169000000
O    -3.313000000     3.112000000    -4.901000000
H    -3.678000000     3.876000000    -4.455000000
H    -2.502000000     2.924000000    -4.427000000
O    -2.436000000     4.519000000     2.389000000
H    -1.925000000     4.441000000     1.584000000
H    -2.499000000     5.462000000     2.543000000
O    -1.171000000     7.723000000    -3.757000000
H    -1.545000000     6.921000000    -3.393000000
H    -1.812000000     8.013000000    -4.406000000
O     0.477000000     0.606000000     6.312000000
H    -0.079000000     1.386000000     6.325000000
H     1.351000000     0.938000000     6.106000000
O    -2.856000000     2.057000000     3.648000000
H    -2.395000000     2.818000000     3.294000000
H    -3.698000000     2.054000000     3.194000000
O    -0.138000000     7.195000000     3.331000000
H     0.303000000     7.514000000     2.544000000
H    -1.012000000     6.943000000     3.031000000
O    -0.095000000    -1.239000000    -4.298000000
H     0.137000000    -0.794000000    -3.483000000
H     0.646000000    -1.819000000    -4.473000000
O     0.873000000     5.149000000    -4.006000000
H     0.041000000     5.356000000    -3.579000000
H     1.161000000     5.979000000    -4.384000000
O     5.354000000    -4.538000000     0.918000000
H     5.464000000    -3.691000000     0.485000000
H     4.796000000    -5.040000000     0.324000000
O     2.900000000     1.542000000     5.229000000
H     3.463000000     1.909000000     5.910000000
H     2.921000000     2.190000000     4.525000000
O    -3.239000000    -1.079000000     0.866000000
H    -3.341000000    -1.290000000     1.794000000
H    -2.365000000    -0.694000000     0.802000000
O     3.276000000     0.318000000    -1.349000000
H     2.866000000    -0.440000000    -0.935000000
H     2.603000000     0.667000000    -1.933000000
O     6.328000000    -2.390000000    -0.528000000
H     6.464000000    -2.398000000    -1.476000000
H     6.315000000    -1.462000000    -0.295000000
O    -1.303000000    -5.515000000    -0.187000000
H    -1.163000000    -5.635000000     0.752000000
H    -1.954000000    -4.816000000    -0.245000000
O     1.969000000    -2.917000000    -5.052000000
H     2.128000000    -2.233000000    -5.703000000
H     1.560000000    -3.627000000    -5.547000000
O     0.582000000     4.684000000     4.321000000
H     0.297000000     5.533000000     3.983000000
H    -0.083000000     4.448000000     4.968000000
O     2.287000000    -1.817000000     5.284000000
H     2.669000000    -1.826000000     4.407000000
H     1.412000000    -1.448000000     5.161000000
O     1.990000000    -5.184000000    -0.685000000
H     1.070000000    -5.293000000    -0.925000000
H     2.313000000    -4.504000000    -1.277000000
O    -3.020000000    -3.466000000    -1.097000000
H    -3.897000000    -3.757000000    -0.845000000
H    -2.811000000    -2.770000000    -0.474000000
O    -0.915000000     1.909000000    -6.157000000
H    -0.302000000     1.879000000    -6.891000000
H    -1.121000000     0.991000000    -5.979000000
O    -1.269000000     2.980000000     5.708000000
H    -2.026000000     2.713000000     5.187000000
H    -1.559000000     3.768000000     6.167000000
O     1.613000000     8.406000000    -0.471000000
H     1.334000000     7.507000000    -0.295000000
H     2.375000000     8.535000000     0.093000000
O    -4.014000000     0.443000000    -5.375000000
H    -3.275000000    -0.077000000    -5.689000000
H    -3.690000000     1.343000000    -5.372000000
O    -1.594000000     7.075000000    -0.498000000
H    -2.169000000     6.312000000    -0.560000000
H    -0.773000000     6.790000000    -0.900000000
O    -0.795000000    -5.521000000     2.884000000
H     0.069000000    -5.424000000     3.285000000
H    -1.156000000    -4.634000000     2.876000000
O    -1.348000000    -0.611000000     4.219000000
H    -0.770000000    -0.596000000     4.982000000
H    -1.604000000     0.303000000     4.094000000
O     2.517000000     3.149000000     3.043000000
H     2.577000000     3.245000000     2.093000000
H     1.697000000     3.585000000     3.276000000
O     1.806000000     1.049000000    -3.697000000
H     1.266000000     1.228000000    -4.466000000
H     2.578000000     0.602000000    -4.045000000
O     2.232000000     3.365000000    -2.619000000
H     2.136000000     2.527000000    -3.071000000
H     1.965000000     4.018000000    -3.265000000
O    -4.120000000     1.212000000    -2.411000000
H    -3.336000000     1.702000000    -2.163000000
H    -4.002000000     1.026000000    -3.342000000
O     2.114000000    -4.894000000     3.717000000
H     2.228000000    -4.611000000     4.624000000
H     2.461000000    -4.171000000     3.195000000
O    -4.274000000     4.067000000    -0.234000000
H    -4.094000000     4.427000000     0.635000000
H    -3.436000000     3.706000000    -0.521000000
O    -1.726000000    -2.997000000     2.888000000
H    -2.254000000    -3.222000000     3.653000000
H    -1.471000000    -2.086000000     3.033000000
O     3.519000000    -2.755000000     2.461000000
H     3.623000000    -1.876000000     2.097000000
H     4.388000000    -3.150000000     2.385000000
O     3.053000000    -3.337000000    -2.500000000
H     3.468000000    -2.478000000    -2.424000000
H     2.704000000    -3.357000000    -3.391000000
O     2.632000000     2.266000000     0.418000000
H     1.752000000     2.280000000     0.042000000
H     3.078000000     1.556000000    -0.043000000
O     4.780000000     1.754000000     2.745000000
H     3.912000000     2.151000000     2.666000000
H     4.676000000     1.083000000     3.420000000
O     2.585000000    -7.438000000     0.762000000
H     1.789000000    -7.967000000     0.719000000
H     2.306000000    -6.562000000     0.496000000
O    -6.352000000     3.166000000    -1.807000000
H    -5.654000000     2.759000000    -2.321000000
H    -5.892000000     3.656000000    -1.125000000
O    -2.081000000    -1.555000000    -5.949000000
H    -1.357000000    -1.531000000    -5.323000000
H    -2.186000000    -2.483000000    -6.157000000
O     6.165000000     0.170000000    -0.455000000
H     5.533000000     0.384000000    -1.140000000
H     6.697000000     0.960000000    -0.364000000
O    -4.266000000     5.212000000    -3.544000000
H    -5.203000000     5.027000000    -3.611000000
H    -4.203000000     6.163000000    -3.634000000
O    -2.564000000    -3.824000000    -3.713000000
H    -2.277000000    -4.726000000    -3.569000000
H    -2.722000000    -3.480000000    -2.834000000
O    -4.956000000     0.787000000     0.149000000
H    -4.599000000    -0.088000000     0.305000000
H    -4.655000000     1.015000000    -0.730000000
O     1.063000000     5.518000000    -0.843000000
H     0.502000000     4.920000000    -0.350000000
H     1.454000000     4.972000000    -1.525000000
O    -1.461000000    -6.076000000    -2.879000000
H    -1.568000000    -7.027000000    -2.868000000
H    -1.345000000    -5.837000000    -1.960000000
