158
-3050.10945
C    -1.170000000     0.765000000     0.393000000
H    -2.105000000     1.154000000     0.787000000
C    -1.187000000    -0.542000000    -0.023000000
H    -2.169000000    -1.005000000    -0.070000000
C    -0.013000000    -1.170000000    -0.429000000
H    -0.080000000    -2.224000000    -0.784000000
C     1.216000000    -0.420000000    -0.475000000
H     2.048000000    -0.960000000    -0.920000000
C     1.179000000     0.925000000    -0.093000000
H     2.087000000     1.488000000     0.109000000
C     0.039000000     1.525000000     0.448000000
C     0.147000000     2.848000000     1.174000000
O    -0.822000000     3.391000000     1.642000000
O     1.203000000     3.410000000     1.360000000
O    -3.920000000    -3.606000000    -2.880000000
H    -2.991000000    -3.597000000    -3.110000000
H    -4.041000000    -4.428000000    -2.405000000
O    -6.364000000    -2.097000000    -2.030000000
H    -6.142000000    -1.736000000    -1.172000000
H    -5.629000000    -2.670000000    -2.247000000
O    -3.814000000     2.959000000     5.547000000
H    -3.232000000     3.705000000     5.690000000
H    -3.582000000     2.638000000     4.676000000
O     0.156000000     3.114000000    -2.136000000
H     1.011000000     3.474000000    -1.899000000
H    -0.303000000     3.844000000    -2.552000000
O    -0.600000000     7.150000000    -0.878000000
H    -0.284000000     7.712000000    -1.585000000
H    -1.554000000     7.212000000    -0.930000000
O     1.791000000     1.693000000    -4.000000000
H     1.184000000     2.324000000    -3.615000000
H     1.511000000     0.847000000    -3.651000000
O     0.777000000     4.205000000     3.947000000
H     0.976000000     4.035000000     3.026000000
H     1.238000000     5.020000000     4.145000000
O     2.186000000    -4.899000000    -3.103000000
H     3.127000000    -4.938000000    -2.935000000
H     2.090000000    -5.205000000    -4.004000000
O    -5.055000000    -2.644000000     0.578000000
H    -4.156000000    -2.961000000     0.660000000
H    -5.539000000    -3.388000000     0.219000000
O     5.248000000     4.000000000     3.118000000
H     5.580000000     4.897000000     3.158000000
H     5.863000000     3.543000000     2.545000000
O    -2.534000000    -3.407000000     1.256000000
H    -1.679000000    -3.704000000     1.566000000
H    -2.768000000    -2.691000000     1.846000000
O     2.766000000     6.202000000     3.307000000
H     2.212000000     6.290000000     2.532000000
H     3.660000000     6.207000000     2.965000000
O     6.001000000    -0.542000000    -3.370000000
H     6.765000000    -0.775000000    -2.842000000
H     5.491000000    -1.351000000    -3.423000000
O     0.720000000    -3.324000000    -5.328000000
H     1.013000000    -4.173000000    -5.658000000
H     0.851000000    -2.724000000    -6.063000000
O    -2.759000000     2.125000000     3.075000000
H    -2.320000000     2.869000000     2.663000000
H    -2.089000000     1.443000000     3.114000000
O    -4.753000000     0.518000000     1.721000000
H    -4.691000000    -0.359000000     2.098000000
H    -4.247000000     1.071000000     2.316000000
O    -0.251000000    -3.827000000     3.080000000
H    -0.046000000    -4.020000000     3.996000000
H    -0.021000000    -2.905000000     2.972000000
O     3.375000000     1.186000000     5.074000000
H     3.847000000     0.414000000     4.764000000
H     3.618000000     1.879000000     4.461000000
O    -1.137000000    -5.383000000    -1.312000000
H    -2.029000000    -5.503000000    -1.639000000
H    -1.149000000    -5.770000000    -0.437000000
O     4.872000000    -4.955000000    -1.469000000
H     4.250000000    -5.430000000    -0.919000000
H     5.506000000    -4.588000000    -0.853000000
O     4.789000000     0.371000000     0.782000000
H     4.285000000     0.916000000     1.386000000
H     4.529000000    -0.525000000     0.994000000
O     1.713000000    -4.106000000    -0.438000000
H     1.739000000    -4.171000000    -1.393000000
H     0.817000000    -4.350000000    -0.206000000
O    -3.002000000     4.085000000     0.097000000
H    -3.362000000     3.276000000    -0.267000000
H    -2.132000000     3.839000000     0.412000000
O     0.552000000     1.319000000     4.211000000
H     1.225000000     1.224000000     4.885000000
H     0.621000000     2.231000000     3.930000000
O    -3.643000000     6.652000000    -0.782000000
H    -4.305000000     6.349000000    -1.403000000
H    -3.307000000     5.851000000    -0.380000000
O     2.397000000     4.404000000    -1.123000000
H     3.318000000     4.656000000    -1.061000000
H     2.224000000     3.923000000    -0.314000000
O     1.200000000    -0.900000000    -3.891000000
H     0.741000000    -1.517000000    -4.461000000
H     1.837000000    -1.438000000    -3.420000000
O     1.041000000     6.251000000     0.901000000
H     1.123000000     5.300000000     0.964000000
H     0.401000000     6.391000000     0.203000000
O    -1.214000000    -6.262000000     1.472000000
H    -1.371000000    -6.900000000     2.168000000
H    -0.584000000    -5.647000000     1.847000000
O    -3.774000000    -5.995000000    -1.614000000
H    -4.552000000    -5.709000000    -1.135000000
H    -3.739000000    -6.941000000    -1.472000000
O    -1.509000000    -0.630000000     4.579000000
H    -1.001000000     0.069000000     4.168000000
H    -0.919000000    -1.001000000     5.236000000
O     5.438000000     1.874000000    -1.767000000
H     5.543000000     1.205000000    -2.444000000
H     5.215000000     1.382000000    -0.977000000
O    -1.165000000     0.778000000    -2.832000000
H    -0.745000000     1.606000000    -2.599000000
H    -0.558000000     0.106000000    -2.521000000
O    -1.694000000     4.718000000     5.240000000
H    -1.082000000     4.277000000     4.650000000
H    -1.496000000     5.649000000     5.137000000
O     0.579000000    -1.260000000     2.636000000
H     0.241000000    -0.957000000     1.793000000
H     0.567000000    -0.481000000     3.192000000
O     1.369000000    -7.838000000     0.699000000
H     1.218000000    -8.751000000     0.942000000
H     0.830000000    -7.334000000     1.308000000
O    -6.049000000     1.713000000    -0.378000000
H    -5.409000000     1.968000000    -1.043000000
H    -5.571000000     1.121000000     0.201000000
O    -3.648000000    -1.709000000     3.227000000
H    -2.946000000    -1.377000000     3.786000000
H    -4.127000000    -2.324000000     3.783000000
O     3.493000000    -5.774000000     1.028000000
H     3.883000000    -5.354000000     1.794000000
H     2.795000000    -5.177000000     0.758000000
O     5.220000000     4.496000000    -1.701000000
H     5.262000000     4.728000000    -2.629000000
H     5.422000000     3.560000000    -1.679000000
O    -1.356000000     6.028000000     2.225000000
H    -0.613000000     6.257000000     1.666000000
H    -1.251000000     5.091000000     2.392000000
O    -2.637000000    -3.514000000    -6.332000000
H    -2.683000000    -4.421000000    -6.635000000
H    -2.142000000    -3.560000000    -5.514000000
O     3.004000000    -2.618000000     1.785000000
H     2.261000000    -2.285000000     2.288000000
H     2.632000000    -2.856000000     0.936000000
O    -3.695000000     2.296000000    -2.044000000
H    -3.318000000     3.035000000    -2.522000000
H    -3.255000000     1.527000000    -2.407000000
O     3.436000000     2.411000000     2.302000000
H     3.821000000     3.167000000     2.745000000
H     2.556000000     2.699000000     2.057000000
O    -0.580000000     7.651000000     4.437000000
H    -0.824000000     7.267000000     3.595000000
H    -0.289000000     8.536000000     4.221000000
O    -4.727000000    -0.975000000    -4.126000000
H    -4.489000000    -1.710000000    -3.562000000
H    -5.646000000    -0.803000000    -3.920000000
O    -1.247000000    -4.243000000    -3.756000000
H    -0.525000000    -4.057000000    -4.357000000
H    -0.835000000    -4.695000000    -3.019000000
