158
-3002.18688
C    -1.310000000     0.494000000     0.624000000
H    -2.306000000     0.703000000     1.004000000
C    -1.167000000    -0.648000000    -0.195000000
H    -2.006000000    -1.330000000    -0.310000000
C     0.095000000    -1.016000000    -0.715000000
H     0.259000000    -1.911000000    -1.323000000
C     1.192000000    -0.221000000    -0.486000000
H     2.116000000    -0.412000000    -1.026000000
C     1.098000000     0.952000000     0.335000000
H     2.009000000     1.529000000     0.473000000
C    -0.141000000     1.304000000     0.938000000
C    -0.203000000     2.616000000     1.679000000
O    -1.281000000     3.145000000     1.968000000
O     0.824000000     2.925000000     2.243000000
O    -0.496000000     1.097000000    -5.195000000
H     0.223000000     1.661000000    -5.478000000
H    -0.423000000     1.076000000    -4.241000000
O    -1.204000000    -1.476000000     4.723000000
H    -1.371000000    -1.163000000     5.612000000
H    -0.497000000    -0.916000000     4.401000000
O     1.967000000     3.388000000    -2.385000000
H     2.198000000     3.181000000    -3.291000000
H     1.516000000     4.230000000    -2.439000000
O     4.263000000     6.796000000     3.156000000
H     3.702000000     7.274000000     3.766000000
H     3.681000000     6.155000000     2.747000000
O    -0.189000000    -2.875000000    -4.022000000
H     0.101000000    -2.524000000    -4.864000000
H     0.621000000    -3.032000000    -3.536000000
O     1.431000000     4.295000000     4.407000000
H     1.342000000     3.785000000     3.602000000
H     0.591000000     4.745000000     4.499000000
O     2.536000000    -3.348000000    -3.275000000
H     2.970000000    -3.259000000    -2.427000000
H     2.940000000    -4.120000000    -3.671000000
O     1.654000000     3.980000000     7.395000000
H     1.820000000     3.595000000     6.534000000
H     2.223000000     4.748000000     7.428000000
O    -2.539000000    -1.189000000    -5.081000000
H    -1.823000000    -0.557000000    -5.141000000
H    -2.232000000    -1.840000000    -4.450000000
O     1.624000000    -3.446000000     3.826000000
H     1.116000000    -3.498000000     3.017000000
H     1.236000000    -4.109000000     4.396000000
O     3.719000000     2.739000000     4.410000000
H     3.539000000     2.284000000     3.588000000
H     2.983000000     3.342000000     4.516000000
O    -4.579000000    -1.653000000     0.620000000
H    -4.107000000    -1.453000000     1.429000000
H    -4.397000000    -0.908000000     0.046000000
O    -1.547000000     5.858000000     1.041000000
H    -1.154000000     5.105000000     1.482000000
H    -1.577000000     5.606000000     0.118000000
O     5.526000000    -1.639000000    -2.704000000
H     5.699000000    -0.753000000    -2.386000000
H     4.966000000    -2.029000000    -2.032000000
O    -5.104000000    -0.468000000    -3.542000000
H    -4.295000000    -0.668000000    -4.013000000
H    -4.812000000    -0.173000000    -2.679000000
O    -3.009000000     4.631000000     5.573000000
H    -2.965000000     3.680000000     5.475000000
H    -3.086000000     4.771000000     6.517000000
O    -2.697000000     1.860000000     3.744000000
H    -2.200000000     2.390000000     3.121000000
H    -2.222000000     1.954000000     4.570000000
O     4.957000000     0.669000000    -0.915000000
H     5.056000000     1.572000000    -1.219000000
H     5.328000000     0.671000000    -0.033000000
O    -2.473000000    -4.140000000     2.699000000
H    -1.707000000    -4.692000000     2.858000000
H    -2.135000000    -3.245000000     2.732000000
O     3.576000000    -1.918000000     2.149000000
H     3.492000000    -1.215000000     2.793000000
H     3.169000000    -2.676000000     2.569000000
O    -5.546000000     2.259000000     0.978000000
H    -5.613000000     2.268000000     1.933000000
H    -4.779000000     2.799000000     0.787000000
O     0.952000000    -0.563000000     3.550000000
H     1.128000000    -1.500000000     3.466000000
H     0.910000000    -0.245000000     2.648000000
O     0.635000000     1.741000000     5.171000000
H     0.887000000     1.111000000     4.496000000
H     0.708000000     2.593000000     4.741000000
O     0.461000000    -1.419000000    -6.173000000
H     0.391000000    -0.483000000    -6.358000000
H     1.366000000    -1.640000000    -6.396000000
O     4.274000000    -4.958000000     0.872000000
H     3.389000000    -5.320000000     0.830000000
H     4.371000000    -4.667000000     1.779000000
O    -0.870000000     6.039000000     4.364000000
H    -1.052000000     6.103000000     3.426000000
H    -1.637000000     5.597000000     4.727000000
O     6.055000000     0.520000000     1.602000000
H     6.928000000     0.129000000     1.580000000
H     5.601000000     0.053000000     2.304000000
O    -0.303000000    -7.014000000    -1.736000000
H     0.015000000    -7.599000000    -2.425000000
H     0.100000000    -7.348000000    -0.935000000
O    -4.514000000    -5.378000000     1.589000000
H    -3.770000000    -4.776000000     1.606000000
H    -4.977000000    -5.211000000     2.409000000
O    -3.200000000     3.407000000    -0.237000000
H    -2.594000000     3.788000000    -0.872000000
H    -2.692000000     3.341000000     0.571000000
O     3.456000000     0.863000000    -3.651000000
H     3.167000000     0.425000000    -2.851000000
H     3.966000000     1.613000000    -3.343000000
O     2.753000000     4.774000000     1.472000000
H     3.588000000     4.331000000     1.320000000
H     2.190000000     4.099000000     1.853000000
O    -1.812000000    -4.964000000    -2.598000000
H    -1.251000000    -4.376000000    -3.104000000
H    -1.245000000    -5.702000000    -2.374000000
O     3.707000000     6.048000000    -1.033000000
H     3.203000000     5.727000000    -0.285000000
H     4.555000000     5.611000000    -0.956000000
O    -0.238000000    -5.982000000     1.974000000
H     0.551000000    -6.438000000     1.682000000
H    -0.959000000    -6.527000000     1.660000000
O    -5.783000000    -2.995000000    -1.497000000
H    -5.339000000    -2.784000000    -0.675000000
H    -6.690000000    -2.725000000    -1.354000000
O    -3.678000000    -0.763000000     2.934000000
H    -3.127000000    -1.318000000     3.486000000
H    -3.384000000     0.129000000     3.123000000
O    -0.310000000     1.695000000    -2.469000000
H     0.527000000     2.156000000    -2.519000000
H    -0.233000000     1.141000000    -1.692000000
O     0.421000000    -3.430000000     1.576000000
H     0.382000000    -4.386000000     1.561000000
H     0.313000000    -3.171000000     0.660000000
O    -4.963000000     2.524000000     5.461000000
H    -5.661000000     2.647000000     4.818000000
H    -4.313000000     1.985000000     5.009000000
O     5.174000000     3.110000000     1.192000000
H     5.839000000     3.525000000     0.642000000
H     5.545000000     2.257000000     1.414000000
O    -3.836000000     7.218000000     1.453000000
H    -3.768000000     8.068000000     1.018000000
H    -3.006000000     6.782000000     1.256000000
O     4.128000000    -2.575000000    -0.561000000
H     3.868000000    -1.976000000     0.140000000
H     4.099000000    -3.442000000    -0.158000000
O    -1.524000000     5.168000000    -1.556000000
H    -2.047000000     5.844000000    -1.987000000
H    -0.617000000     5.420000000    -1.729000000
O    -3.480000000     0.621000000    -1.461000000
H    -3.344000000     1.555000000    -1.304000000
H    -2.696000000     0.201000000    -1.107000000
O     3.286000000    -1.445000000    -5.413000000
H     2.890000000    -1.817000000    -4.625000000
H     3.222000000    -0.498000000    -5.289000000
O    -4.221000000    -3.306000000    -3.567000000
H    -4.829000000    -2.972000000    -2.907000000
H    -3.508000000    -3.695000000    -3.059000000
O    -0.405000000    -5.297000000    -5.788000000
H    -1.197000000    -5.833000000    -5.741000000
H    -0.605000000    -4.527000000    -5.256000000
