158
-3003.61267
C    -1.329000000     0.659000000    -0.048000000
H    -2.335000000     1.043000000    -0.199000000
C    -0.742000000    -0.148000000    -1.028000000
H    -1.196000000    -0.342000000    -1.996000000
C     0.497000000    -0.799000000    -0.781000000
H     0.935000000    -1.442000000    -1.511000000
C     1.096000000    -0.702000000     0.440000000
H     2.065000000    -1.169000000     0.598000000
C     0.551000000     0.262000000     1.284000000
H     1.074000000     0.472000000     2.213000000
C    -0.655000000     0.932000000     1.118000000
C    -1.150000000     1.975000000     2.068000000
O    -2.185000000     2.592000000     1.788000000
O    -0.456000000     2.406000000     2.954000000
O     5.418000000     1.326000000    -1.608000000
H     6.044000000     0.816000000    -2.123000000
H     5.301000000     0.819000000    -0.804000000
O     3.703000000    -6.518000000    -2.448000000
H     3.999000000    -6.439000000    -1.541000000
H     3.872000000    -5.657000000    -2.830000000
O    -2.647000000     0.416000000    -4.190000000
H    -2.667000000     1.112000000    -3.533000000
H    -2.291000000     0.836000000    -4.973000000
O     5.275000000    -4.449000000    -2.262000000
H     6.100000000    -4.038000000    -2.001000000
H     4.629000000    -3.746000000    -2.205000000
O    -3.701000000     4.008000000     3.955000000
H    -2.881000000     3.815000000     4.409000000
H    -3.850000000     3.245000000     3.396000000
O    -0.946000000    -1.979000000    -5.584000000
H    -1.438000000    -1.158000000    -5.545000000
H    -0.164000000    -1.765000000    -6.093000000
O     1.124000000     4.483000000     4.505000000
H     1.954000000     4.775000000     4.128000000
H     0.973000000     3.623000000     4.113000000
O     2.657000000     0.715000000    -5.532000000
H     3.478000000     1.177000000    -5.361000000
H     1.983000000     1.390000000    -5.464000000
O    -5.321000000     0.091000000    -5.051000000
H    -4.995000000    -0.653000000    -5.557000000
H    -4.992000000    -0.059000000    -4.165000000
O     4.040000000     2.540000000     4.240000000
H     4.295000000     2.981000000     3.429000000
H     4.580000000     2.950000000     4.916000000
O    -1.713000000     5.199000000     1.977000000
H    -1.583000000     5.336000000     2.915000000
H    -1.665000000     4.249000000     1.865000000
O     2.195000000     1.949000000    -0.971000000
H     1.846000000     1.078000000    -0.783000000
H     2.689000000     2.184000000    -0.186000000
O    -3.630000000     4.769000000    -2.223000000
H    -3.995000000     4.277000000    -1.487000000
H    -2.731000000     4.964000000    -1.958000000
O     1.549000000    -4.566000000    -5.233000000
H     2.280000000    -4.982000000    -5.689000000
H     1.953000000    -4.121000000    -4.488000000
O    -1.167000000     6.120000000     5.529000000
H    -1.440000000     6.538000000     4.713000000
H    -0.280000000     5.804000000     5.352000000
O    -4.870000000     1.765000000     2.278000000
H    -4.513000000     1.241000000     2.995000000
H    -4.108000000     1.996000000     1.747000000
O    -3.042000000    -3.599000000     0.555000000
H    -2.243000000    -4.061000000     0.807000000
H    -3.423000000    -3.310000000     1.384000000
O     4.447000000    -1.604000000    -2.191000000
H     5.165000000    -1.480000000    -2.812000000
H     4.448000000    -0.805000000    -1.663000000
O     4.598000000    -3.206000000     1.537000000
H     4.919000000    -4.079000000     1.313000000
H     3.772000000    -3.364000000     1.995000000
O     1.498000000     1.442000000     4.748000000
H     2.297000000     1.945000000     4.593000000
H     0.886000000     1.752000000     4.080000000
O    -1.782000000     2.420000000     5.145000000
H    -1.104000000     2.188000000     5.780000000
H    -1.395000000     2.209000000     4.295000000
O     7.101000000    -2.165000000     1.836000000
H     7.134000000    -1.281000000     1.472000000
H     6.166000000    -2.355000000     1.918000000
O     0.391000000     0.256000000    -7.323000000
H     0.897000000     0.787000000    -6.709000000
H     0.961000000     0.164000000    -8.086000000
O     3.026000000     2.778000000    -3.509000000
H     2.141000000     2.414000000    -3.518000000
H     3.364000000     2.563000000    -2.639000000
O     1.898000000    -4.325000000     1.971000000
H     1.036000000    -3.930000000     1.837000000
H     1.840000000    -5.177000000     1.540000000
O    -1.466000000    -6.102000000    -2.820000000
H    -1.671000000    -6.440000000    -3.692000000
H    -2.185000000    -5.501000000    -2.622000000
O     4.344000000    -3.122000000    -5.378000000
H     4.445000000    -4.036000000    -5.642000000
H     3.722000000    -3.149000000    -4.650000000
O    -1.443000000    -1.881000000     4.553000000
H    -0.803000000    -1.765000000     3.851000000
H    -1.705000000    -2.799000000     4.490000000
O     2.662000000    -3.294000000    -3.086000000
H     3.128000000    -2.562000000    -2.682000000
H     2.198000000    -3.712000000    -2.361000000
O    -4.352000000     3.749000000     0.042000000
H    -4.981000000     3.980000000     0.726000000
H    -3.524000000     3.632000000     0.507000000
O     0.303000000     2.314000000    -5.295000000
H     0.275000000     2.508000000    -4.359000000
H    -0.604000000     2.408000000    -5.587000000
O     0.842000000     4.627000000     0.600000000
H     1.236000000     3.797000000     0.333000000
H     0.495000000     4.456000000     1.476000000
O    -1.749000000    -2.597000000    -2.945000000
H    -1.055000000    -2.733000000    -2.300000000
H    -1.286000000    -2.386000000    -3.755000000
O     0.967000000    -4.631000000    -1.312000000
H     0.236000000    -4.991000000    -1.814000000
H     1.203000000    -5.327000000    -0.700000000
O     0.102000000     3.086000000    -2.649000000
H    -0.240000000     3.900000000    -2.280000000
H     0.835000000     2.854000000    -2.079000000
O    -0.012000000     0.528000000     6.796000000
H     0.421000000     0.791000000     5.984000000
H    -0.160000000    -0.413000000     6.695000000
O    -3.855000000     0.556000000     4.477000000
H    -2.966000000     0.283000000     4.249000000
H    -3.734000000     1.329000000     5.028000000
O    -4.451000000     6.403000000     4.611000000
H    -4.068000000     5.532000000     4.508000000
H    -4.944000000     6.544000000     3.802000000
O     2.936000000    -1.571000000    -7.270000000
H     3.702000000    -2.136000000    -7.169000000
H     2.886000000    -1.087000000    -6.446000000
O     1.775000000    -6.456000000     0.302000000
H     1.315000000    -7.278000000     0.133000000
H     2.681000000    -6.718000000     0.467000000
O     4.159000000     2.923000000     0.681000000
H     4.093000000     3.740000000     0.187000000
H     5.090000000     2.843000000     0.890000000
O     1.492000000     5.039000000     7.162000000
H     1.652000000     4.124000000     7.395000000
H     1.573000000     5.061000000     6.208000000
O     4.862000000    -0.248000000     0.404000000
H     4.848000000    -1.127000000     0.784000000
H     4.648000000     0.332000000     1.135000000
O    -0.574000000     5.595000000    -1.408000000
H    -0.074000000     5.405000000    -0.614000000
H    -0.366000000     6.508000000    -1.608000000
O    -5.699000000     0.299000000    -1.979000000
H    -6.339000000     0.939000000    -2.291000000
H    -5.603000000     0.491000000    -1.046000000
O     4.734000000     0.296000000     3.081000000
H     4.401000000    -0.384000000     3.667000000
H     4.653000000     1.107000000     3.584000000
O    -3.625000000     6.652000000     0.442000000
H    -2.854000000     6.211000000     0.800000000
H    -4.220000000     6.737000000     1.187000000
O    -4.456000000    -2.974000000    -1.997000000
H    -4.125000000    -3.146000000    -1.115000000
H    -3.721000000    -2.564000000    -2.453000000
