158
-3039.14028
C    -1.243000000     0.159000000     0.873000000
H    -2.078000000     0.271000000     1.559000000
C    -0.836000000    -1.018000000     0.298000000
H    -1.362000000    -1.961000000     0.421000000
C     0.311000000    -1.093000000    -0.556000000
H     0.753000000    -2.068000000    -0.922000000
C     1.001000000     0.144000000    -0.865000000
H     1.870000000     0.161000000    -1.518000000
C     0.558000000     1.358000000    -0.403000000
H     1.157000000     2.259000000    -0.510000000
C    -0.527000000     1.394000000     0.506000000
C    -0.802000000     2.682000000     1.287000000
O    -1.572000000     2.690000000     2.208000000
O    -0.024000000     3.600000000     1.084000000
O     0.246000000     2.614000000     4.650000000
H     0.923000000     2.035000000     4.299000000
H    -0.324000000     2.797000000     3.903000000
O     0.100000000    -4.554000000     2.373000000
H     0.355000000    -5.455000000     2.569000000
H    -0.017000000    -4.539000000     1.423000000
O     2.600000000    -4.541000000    -3.655000000
H     1.752000000    -4.891000000    -3.927000000
H     2.537000000    -3.601000000    -3.822000000
O     1.606000000    -7.527000000    -1.154000000
H     2.131000000    -7.928000000    -1.846000000
H     0.700000000    -7.701000000    -1.409000000
O    -1.582000000    -3.219000000     4.553000000
H    -2.466000000    -3.004000000     4.254000000
H    -1.155000000    -3.597000000     3.784000000
O    -2.194000000    -3.875000000    -2.584000000
H    -1.928000000    -3.313000000    -3.312000000
H    -1.371000000    -4.206000000    -2.224000000
O     0.825000000     5.777000000     2.149000000
H     1.571000000     6.097000000     1.642000000
H     0.501000000     5.027000000     1.651000000
O    -3.750000000    -5.019000000     1.324000000
H    -3.234000000    -5.661000000     1.812000000
H    -3.722000000    -4.229000000     1.864000000
O    -2.294000000    -2.697000000    -6.330000000
H    -2.033000000    -2.235000000    -5.533000000
H    -3.110000000    -3.138000000    -6.095000000
O    -5.964000000    -0.778000000    -0.463000000
H    -5.438000000    -0.485000000    -1.206000000
H    -6.290000000    -1.639000000    -0.724000000
O    -2.298000000     0.326000000    -2.346000000
H    -2.891000000     1.053000000    -2.155000000
H    -1.817000000     0.188000000    -1.530000000
O    -0.275000000     7.244000000    -0.081000000
H     0.084000000     7.305000000     0.804000000
H    -0.270000000     8.145000000    -0.404000000
O     3.902000000     0.708000000    -0.021000000
H     4.851000000     0.732000000     0.100000000
H     3.745000000    -0.088000000    -0.529000000
O    -1.657000000     3.526000000    -2.842000000
H    -0.823000000     3.330000000    -2.416000000
H    -1.459000000     4.255000000    -3.431000000
O    -0.333000000    -5.578000000    -3.983000000
H    -0.548000000    -5.751000000    -4.900000000
H    -0.025000000    -6.420000000    -3.646000000
O    -4.332000000     6.687000000     1.163000000
H    -3.797000000     6.325000000     1.870000000
H    -3.930000000     6.350000000     0.362000000
O     2.537000000    -1.594000000     1.889000000
H     2.071000000    -1.774000000     1.072000000
H     3.336000000    -1.144000000     1.615000000
O    -4.136000000     1.808000000     2.770000000
H    -3.247000000     2.039000000     2.502000000
H    -4.690000000     2.473000000     2.360000000
O     4.762000000    -1.995000000    -0.875000000
H     4.737000000    -1.510000000    -1.700000000
H     5.614000000    -2.431000000    -0.879000000
O     0.781000000    -0.061000000     3.479000000
H     0.896000000    -0.999000000     3.327000000
H    -0.162000000     0.080000000     3.396000000
O     0.452000000     4.945000000    -1.246000000
H     0.474000000     4.546000000    -0.376000000
H     0.329000000     5.879000000    -1.077000000
O     3.758000000    -4.785000000     2.498000000
H     3.080000000    -4.856000000     3.170000000
H     3.447000000    -5.341000000     1.783000000
O    -4.253000000     2.188000000    -1.926000000
H    -3.679000000     2.759000000    -2.435000000
H    -4.581000000     2.745000000    -1.220000000
O    -2.792000000     5.093000000     2.718000000
H    -3.107000000     4.868000000     3.594000000
H    -2.390000000     4.286000000     2.394000000
O    -3.936000000    -2.381000000     3.542000000
H    -4.445000000    -1.669000000     3.154000000
H    -4.592000000    -2.968000000     3.917000000
O     2.888000000     1.245000000    -3.587000000
H     1.987000000     1.475000000    -3.812000000
H     3.074000000     1.754000000    -2.797000000
O     1.426000000    -2.914000000     4.034000000
H     1.024000000    -3.498000000     3.391000000
H     2.179000000    -2.537000000     3.577000000
O    -0.235000000     5.720000000    -3.960000000
H     0.354000000     5.569000000    -3.220000000
H     0.344000000     5.774000000    -4.720000000
O    -3.758000000     1.339000000     5.983000000
H    -3.746000000     1.516000000     5.042000000
H    -4.351000000     1.999000000     6.343000000
O    -1.555000000     4.208000000     5.948000000
H    -1.698000000     3.733000000     6.767000000
H    -0.919000000     3.676000000     5.470000000
O    -2.635000000     5.118000000    -0.638000000
H    -2.094000000     5.283000000     0.134000000
H    -2.040000000     4.706000000    -1.264000000
O     4.225000000     2.893000000    -1.660000000
H     5.136000000     2.605000000    -1.608000000
H     3.780000000     2.408000000    -0.965000000
O    -0.417000000    -5.607000000    -0.287000000
H     0.490000000    -5.913000000    -0.310000000
H    -0.941000000    -6.406000000    -0.333000000
O     3.520000000    -6.741000000     0.716000000
H     4.298000000    -7.177000000     0.368000000
H     2.922000000    -6.689000000    -0.030000000
O    -4.497000000    -4.433000000    -1.274000000
H    -4.111000000    -4.461000000    -0.398000000
H    -3.778000000    -4.159000000    -1.844000000
O     0.380000000     1.877000000    -4.318000000
H    -0.274000000     1.722000000    -3.636000000
H    -0.105000000     2.307000000    -5.022000000
O     2.205000000    -4.360000000    -0.803000000
H     2.069000000    -4.479000000    -1.743000000
H     3.053000000    -3.922000000    -0.738000000
O     5.361000000    -2.602000000     2.032000000
H     5.101000000    -2.387000000     1.136000000
H     4.885000000    -3.408000000     2.233000000
O     4.480000000    -6.221000000    -2.773000000
H     3.730000000    -5.678000000    -3.017000000
H     4.363000000    -7.029000000    -3.274000000
O    -1.139000000    -1.427000000    -4.195000000
H    -1.161000000    -0.921000000    -3.382000000
H    -0.234000000    -1.354000000    -4.498000000
O     4.877000000    -0.525000000    -3.125000000
H     5.793000000    -0.348000000    -3.340000000
H     4.389000000     0.163000000    -3.577000000
O    -5.375000000     4.099000000     1.406000000
H    -6.316000000     4.017000000     1.561000000
H    -5.170000000     5.002000000     1.652000000
O     2.052000000    -1.823000000    -4.343000000
H     2.457000000    -1.078000000    -3.899000000
H     2.337000000    -1.743000000    -5.253000000
O    -1.155000000     7.140000000     3.516000000
H    -0.258000000     7.055000000     3.194000000
H    -1.614000000     6.384000000     3.151000000
O     6.037000000    -5.259000000    -0.864000000
H     6.684000000    -5.965000000    -0.862000000
H     5.359000000    -5.557000000    -1.470000000
O     2.600000000     2.848000000     1.847000000
H     2.455000000     1.999000000     1.429000000
H     1.758000000     3.298000000     1.771000000
O    -5.201000000    -0.487000000     2.210000000
H    -4.988000000     0.400000000     2.498000000
H    -5.134000000    -0.452000000     1.256000000
O     3.677000000     5.397000000     1.017000000
H     4.404000000     5.535000000     0.411000000
H     3.781000000     4.493000000     1.314000000
