158
-3057.09706
C     0.506000000    -0.462000000     1.374000000
H     0.873000000    -0.931000000     2.283000000
C    -0.075000000    -1.299000000     0.387000000
H    -0.198000000    -2.365000000     0.562000000
C    -0.566000000    -0.737000000    -0.794000000
H    -0.883000000    -1.500000000    -1.526000000
C    -0.543000000     0.639000000    -0.971000000
H    -1.034000000     1.046000000    -1.852000000
C     0.099000000     1.477000000    -0.059000000
H     0.279000000     2.524000000    -0.291000000
C     0.756000000     0.917000000     1.077000000
C     1.501000000     1.795000000     2.071000000
O     2.263000000     1.206000000     2.802000000
O     1.583000000     3.003000000     1.855000000
O     4.455000000     0.935000000     4.191000000
H     3.586000000     1.160000000     3.857000000
H     4.956000000     1.748000000     4.120000000
O    -1.948000000    -7.110000000    -3.704000000
H    -2.334000000    -7.064000000    -2.830000000
H    -1.418000000    -6.316000000    -3.775000000
O     2.312000000    -3.642000000    -2.863000000
H     3.266000000    -3.632000000    -2.933000000
H     2.020000000    -2.953000000    -3.459000000
O    -4.545000000    -4.588000000    -2.398000000
H    -4.705000000    -4.133000000    -1.571000000
H    -3.992000000    -5.332000000    -2.160000000
O    -1.113000000     2.310000000     4.306000000
H    -0.751000000     2.123000000     3.441000000
H    -2.000000000     1.952000000     4.277000000
O    -6.559000000    -1.098000000     0.810000000
H    -6.194000000    -1.186000000    -0.071000000
H    -6.442000000    -1.961000000     1.206000000
O    -2.821000000    -6.602000000    -1.076000000
H    -3.214000000    -6.337000000    -0.244000000
H    -1.906000000    -6.785000000    -0.861000000
O    -2.739000000    -1.551000000    -6.698000000
H    -2.390000000    -2.398000000    -6.421000000
H    -2.051000000    -0.923000000    -6.475000000
O     3.900000000     3.980000000     0.936000000
H     4.160000000     4.521000000     1.682000000
H     2.989000000     3.747000000     1.114000000
O     0.912000000    -4.542000000    -0.426000000
H     1.197000000    -3.942000000    -1.114000000
H     1.696000000    -5.048000000    -0.210000000
O    -0.592000000    -2.908000000    -5.230000000
H     0.072000000    -2.457000000    -4.708000000
H    -0.287000000    -2.820000000    -6.133000000
O    -3.475000000    -0.423000000     0.707000000
H    -2.821000000    -0.890000000     0.188000000
H    -4.315000000    -0.751000000     0.386000000
O     1.498000000     2.010000000    -3.634000000
H     2.067000000     2.137000000    -2.874000000
H     0.776000000     2.623000000    -3.497000000
O     3.286000000     6.769000000     3.509000000
H     2.538000000     6.493000000     4.039000000
H     4.042000000     6.664000000     4.088000000
O    -1.588000000    -0.487000000    -3.864000000
H    -2.296000000    -1.118000000    -3.732000000
H    -2.035000000     0.332000000    -4.080000000
O     3.872000000    -0.679000000     1.811000000
H     3.949000000    -1.176000000     2.624000000
H     3.295000000     0.053000000     2.031000000
O    -3.352000000    -2.514000000    -3.561000000
H    -2.536000000    -2.961000000    -3.787000000
H    -3.889000000    -3.190000000    -3.147000000
O     0.032000000    -5.148000000    -3.828000000
H    -0.417000000    -4.607000000    -4.477000000
H     0.831000000    -4.662000000    -3.622000000
O     3.095000000    -1.474000000    -0.677000000
H     2.144000000    -1.398000000    -0.599000000
H     3.417000000    -1.380000000     0.219000000
O     1.571000000    -0.342000000     5.051000000
H     2.187000000    -1.031000000     4.802000000
H     1.810000000     0.403000000     4.500000000
O     1.452000000     4.758000000    -1.014000000
H     1.420000000     4.942000000    -0.076000000
H     1.498000000     5.620000000    -1.426000000
O    -0.104000000    -5.304000000     2.279000000
H     0.071000000    -4.952000000     1.406000000
H     0.607000000    -5.925000000     2.434000000
O    -2.325000000     4.388000000    -0.329000000
H    -3.040000000     5.024000000    -0.332000000
H    -1.758000000     4.668000000     0.390000000
O     0.055000000     5.185000000     2.027000000
H     0.602000000     4.399000000     2.032000000
H     0.221000000     5.597000000     2.875000000
O    -2.871000000     2.072000000    -4.177000000
H    -2.132000000     2.439000000    -3.691000000
H    -2.965000000     2.645000000    -4.938000000
O     1.008000000    -1.391000000    -3.593000000
H     1.479000000    -0.710000000    -3.114000000
H     0.116000000    -1.051000000    -3.676000000
O    -1.935000000    -2.344000000     2.755000000
H    -2.402000000    -3.176000000     2.669000000
H    -1.017000000    -2.594000000     2.858000000
O     2.935000000     2.651000000    -1.601000000
H     2.235000000     3.224000000    -1.289000000
H     3.530000000     2.572000000    -0.855000000
O    -0.984000000    -1.002000000     5.731000000
H    -0.060000000    -0.833000000     5.545000000
H    -1.435000000    -0.210000000     5.439000000
O     2.629000000     3.614000000     4.960000000
H     2.502000000     3.328000000     4.056000000
H     2.103000000     3.006000000     5.480000000
O    -0.921000000     3.519000000    -2.743000000
H    -0.941000000     3.554000000    -1.787000000
H    -0.811000000     4.430000000    -3.014000000
O     1.308000000     1.836000000     6.438000000
H     1.259000000     0.909000000     6.206000000
H     0.526000000     1.992000000     6.969000000
O     5.761000000     1.318000000     1.062000000
H     5.182000000     2.076000000     1.140000000
H     5.256000000     0.592000000     1.429000000
O    -4.935000000     0.629000000    -2.937000000
H    -4.301000000     0.924000000    -3.590000000
H    -4.815000000     1.228000000    -2.199000000
O     5.773000000     3.535000000     3.284000000
H     6.434000000     4.143000000     2.952000000
H     5.436000000     3.955000000     4.074000000
O     3.539000000    -1.931000000     4.342000000
H     4.183000000    -1.844000000     5.045000000
H     3.728000000    -2.783000000     3.949000000
O     4.402000000    -4.000000000     2.742000000
H     5.309000000    -4.261000000     2.585000000
H     4.234000000    -3.314000000     2.096000000
O    -2.327000000    -5.699000000     3.755000000
H    -2.314000000    -5.089000000     4.492000000
H    -1.593000000    -5.424000000     3.204000000
O    -1.099000000     4.865000000     5.338000000
H    -1.917000000     5.312000000     5.117000000
H    -1.175000000     4.007000000     4.922000000
O     5.713000000     5.539000000    -0.180000000
H     4.934000000     4.996000000    -0.062000000
H     5.664000000     5.836000000    -1.089000000
O    -4.845000000     2.682000000    -0.891000000
H    -4.069000000     3.165000000    -0.607000000
H    -5.445000000     2.735000000    -0.147000000
O     4.599000000    -0.853000000    -2.822000000
H     4.018000000    -1.110000000    -2.105000000
H     5.277000000    -1.529000000    -2.834000000
O    -2.600000000     2.212000000     1.706000000
H    -2.826000000     1.286000000     1.613000000
H    -2.336000000     2.482000000     0.826000000
O    -0.054000000    -6.876000000    -0.666000000
H     0.761000000    -7.263000000    -0.986000000
H     0.162000000    -5.956000000    -0.512000000
O     6.957000000    -0.644000000     4.279000000
H     6.721000000    -1.495000000     4.649000000
H     6.119000000    -0.212000000     4.116000000
O    -4.985000000    -1.678000000    -1.509000000
H    -4.646000000    -0.960000000    -2.043000000
H    -5.683000000    -2.063000000    -2.040000000
O     4.705000000     5.333000000     5.643000000
H     3.895000000     4.992000000     5.262000000
H     4.688000000     5.030000000     6.551000000
O    -3.555000000    -0.158000000     3.493000000
H    -3.747000000     0.021000000     2.572000000
H    -3.147000000    -1.024000000     3.489000000
