158
-3052.12394
C     0.394000000     0.530000000     1.275000000
H     0.521000000     0.896000000     2.290000000
C    -0.500000000    -0.506000000     1.063000000
H    -1.052000000    -0.924000000     1.901000000
C    -0.687000000    -1.004000000    -0.193000000
H    -1.406000000    -1.819000000    -0.379000000
C    -0.038000000    -0.398000000    -1.250000000
H    -0.229000000    -0.761000000    -2.257000000
C     0.668000000     0.813000000    -1.120000000
H     0.969000000     1.355000000    -2.013000000
C     0.964000000     1.248000000     0.173000000
C     1.955000000     2.358000000     0.518000000
O     2.237000000     2.520000000     1.696000000
O     2.571000000     3.012000000    -0.266000000
O    -0.010000000     3.996000000     2.652000000
H     0.176000000     4.374000000     3.512000000
H     0.727000000     3.409000000     2.485000000
O     4.965000000     0.851000000    -3.118000000
H     5.074000000     0.560000000    -2.213000000
H     4.607000000     1.736000000    -3.044000000
O     3.687000000     0.130000000     1.773000000
H     3.251000000     0.979000000     1.699000000
H     3.986000000     0.093000000     2.681000000
O     1.608000000     0.213000000    -6.539000000
H     1.582000000     0.359000000    -7.485000000
H     1.183000000     0.985000000    -6.166000000
O    -1.798000000    -3.726000000     2.420000000
H    -1.953000000    -3.105000000     3.132000000
H    -1.819000000    -4.585000000     2.842000000
O    -4.512000000    -3.101000000     4.352000000
H    -4.335000000    -3.310000000     5.269000000
H    -3.845000000    -2.456000000     4.120000000
O    -4.086000000    -1.462000000    -3.514000000
H    -3.870000000    -0.965000000    -4.303000000
H    -3.329000000    -2.032000000    -3.375000000
O     0.886000000     5.413000000    -1.259000000
H     0.193000000     5.515000000    -0.606000000
H     1.445000000     4.720000000    -0.908000000
O    -4.702000000    -4.065000000    -4.674000000
H    -4.564000000    -4.000000000    -3.729000000
H    -4.022000000    -4.668000000    -4.975000000
O     4.395000000     5.098000000     4.580000000
H     3.633000000     5.541000000     4.954000000
H     4.179000000     4.992000000     3.654000000
O     5.264000000     0.654000000     4.134000000
H     5.904000000     0.782000000     3.434000000
H     5.754000000     0.212000000     4.828000000
O    -5.908000000    -2.806000000    -2.112000000
H    -5.353000000    -2.173000000    -2.568000000
H    -5.595000000    -2.791000000    -1.208000000
O    -2.965000000     2.287000000     2.933000000
H    -2.504000000     2.122000000     3.756000000
H    -2.274000000     2.525000000     2.315000000
O    -2.270000000    -1.632000000     4.239000000
H    -2.524000000    -1.059000000     4.962000000
H    -1.313000000    -1.612000000     4.242000000
O    -3.142000000     0.944000000    -5.031000000
H    -3.804000000     1.328000000    -4.457000000
H    -2.432000000     0.689000000    -4.441000000
O     1.308000000     3.628000000     5.965000000
H     1.314000000     4.352000000     5.339000000
H     1.664000000     2.886000000     5.477000000
O     5.528000000     2.521000000     0.852000000
H     4.766000000     3.029000000     0.576000000
H     5.943000000     3.059000000     1.526000000
O    -3.700000000    -3.368000000     0.341000000
H    -4.254000000    -3.971000000     0.836000000
H    -3.063000000    -3.049000000     0.980000000
O     3.722000000     3.159000000    -2.549000000
H     3.262000000     2.961000000    -1.734000000
H     3.148000000     3.774000000    -3.005000000
O    -6.545000000    -0.550000000     0.307000000
H    -5.709000000    -0.274000000     0.683000000
H    -7.115000000    -0.685000000     1.064000000
O    -4.210000000     1.252000000    -2.452000000
H    -5.005000000     1.671000000    -2.780000000
H    -4.481000000     0.359000000    -2.237000000
O    -0.008000000    -3.882000000     0.418000000
H     0.857000000    -3.671000000     0.770000000
H    -0.614000000    -3.657000000     1.124000000
O    -1.854000000    -2.944000000    -2.961000000
H    -1.444000000    -3.278000000    -3.759000000
H    -1.123000000    -2.790000000    -2.362000000
O    -0.205000000     2.043000000    -5.677000000
H    -0.975000000     1.591000000    -5.331000000
H    -0.542000000     2.884000000    -5.988000000
O    -2.355000000     1.947000000    -0.450000000
H    -1.504000000     1.568000000    -0.667000000
H    -2.939000000     1.640000000    -1.144000000
O     3.777000000     5.139000000     1.930000000
H     3.395000000     4.346000000     1.554000000
H     3.437000000     5.850000000     1.386000000
O    -1.349000000     4.300000000     0.226000000
H    -1.879000000     3.517000000     0.080000000
H    -0.892000000     4.130000000     1.050000000
O     1.074000000    -3.425000000    -2.125000000
H     0.642000000    -3.681000000    -1.310000000
H     1.929000000    -3.855000000    -2.087000000
O     2.562000000    -1.965000000     3.952000000
H     2.120000000    -1.497000000     3.244000000
H     1.996000000    -2.716000000     4.133000000
O     0.280000000    -7.481000000     0.232000000
H     0.106000000    -7.881000000     1.084000000
H    -0.539000000    -7.040000000     0.004000000
O     3.109000000    -1.051000000    -4.306000000
H     2.490000000    -0.724000000    -4.959000000
H     3.667000000    -0.299000000    -4.108000000
O    -6.569000000    -0.204000000    -3.982000000
H    -6.191000000    -0.972000000    -3.553000000
H    -6.938000000     0.313000000    -3.267000000
O    -1.077000000     2.115000000     5.400000000
H    -1.620000000     2.006000000     6.180000000
H    -0.627000000     2.949000000     5.536000000
O     5.632000000     0.254000000    -0.457000000
H     5.107000000    -0.110000000     0.256000000
H     5.761000000     1.171000000    -0.215000000
O    -2.073000000    -5.801000000     0.148000000
H    -2.739000000    -5.709000000     0.830000000
H    -1.577000000    -4.983000000     0.185000000
O    -4.639000000     0.237000000     2.208000000
H    -3.915000000    -0.348000000     2.430000000
H    -4.264000000     1.116000000     2.264000000
O     2.453000000    -2.170000000     0.537000000
H     3.101000000    -1.544000000     0.860000000
H     1.827000000    -1.635000000     0.048000000
O    -0.442000000    -1.381000000    -5.344000000
H     0.353000000    -1.094000000    -5.793000000
H    -0.187000000    -2.187000000    -4.895000000
O    -2.474000000    -5.992000000    -2.787000000
H    -2.735000000    -6.111000000    -1.874000000
H    -2.500000000    -5.045000000    -2.922000000
O     3.779000000     2.201000000    -5.489000000
H     3.269000000     2.279000000    -4.683000000
H     4.686000000     2.131000000    -5.193000000
O     0.476000000    -3.744000000    -4.679000000
H     0.840000000    -3.635000000    -3.800000000
H     0.191000000    -4.657000000    -4.708000000
O     6.456000000     4.501000000    -1.712000000
H     6.093000000     5.101000000    -2.363000000
H     5.941000000     3.700000000    -1.810000000
O     2.708000000     1.800000000     4.157000000
H     2.613000000     2.229000000     3.307000000
H     3.654000000     1.713000000     4.277000000
O    -5.382000000    -4.640000000     1.854000000
H    -6.260000000    -4.258000000     1.836000000
H    -5.112000000    -4.577000000     2.770000000
O     0.771000000    -3.937000000     4.045000000
H     0.974000000    -4.470000000     3.277000000
H     0.642000000    -4.572000000     4.750000000
O     0.198000000     0.009000000     4.501000000
H     1.130000000     0.163000000     4.654000000
H    -0.228000000     0.821000000     4.775000000
O     3.206000000     7.463000000     0.397000000
H     3.403000000     8.398000000     0.444000000
H     2.450000000     7.406000000    -0.188000000
O    -0.699000000     3.607000000    -2.867000000
H     0.041000000     3.705000000    -3.466000000
H    -0.331000000     3.781000000    -2.000000000
