158
-3075.68008
C     0.721000000     0.202000000     1.257000000
H     1.197000000     0.289000000     2.230000000
C    -0.288000000    -0.727000000     1.021000000
H    -0.598000000    -1.264000000     1.914000000
C    -0.845000000    -0.822000000    -0.232000000
H    -1.545000000    -1.630000000    -0.468000000
C    -0.365000000    -0.148000000    -1.275000000
H    -0.743000000    -0.358000000    -2.272000000
C     0.649000000     0.818000000    -1.030000000
H     1.069000000     1.369000000    -1.867000000
C     1.196000000     1.006000000     0.203000000
C     2.143000000     2.196000000     0.498000000
O     2.571000000     2.387000000     1.633000000
O     2.341000000     2.982000000    -0.402000000
O     0.263000000     3.328000000     3.737000000
H     0.998000000     2.949000000     3.254000000
H     0.561000000     4.205000000     3.978000000
O    -2.639000000     4.601000000    -2.037000000
H    -2.991000000     3.711000000    -2.034000000
H    -1.719000000     4.497000000    -1.795000000
O     3.673000000    -0.383000000    -1.816000000
H     4.480000000    -0.619000000    -1.359000000
H     3.716000000     0.569000000    -1.902000000
O     3.563000000     0.266000000     3.071000000
H     3.384000000     1.154000000     2.762000000
H     4.518000000     0.216000000     3.114000000
O     0.050000000     0.358000000    -5.058000000
H     0.615000000     1.088000000    -5.313000000
H    -0.717000000     0.776000000    -4.665000000
O    -2.468000000    -2.125000000     4.349000000
H    -1.844000000    -1.691000000     4.931000000
H    -3.141000000    -2.471000000     4.935000000
O    -3.164000000    -4.419000000    -2.852000000
H    -2.316000000    -3.975000000    -2.822000000
H    -3.236000000    -4.855000000    -2.002000000
O     1.622000000     5.406000000     0.308000000
H     0.765000000     5.133000000     0.633000000
H     1.989000000     4.618000000    -0.093000000
O    -5.347000000    -2.571000000    -3.352000000
H    -5.819000000    -3.403000000    -3.374000000
H    -4.425000000    -2.820000000    -3.293000000
O     4.495000000     2.997000000     5.761000000
H     5.331000000     2.613000000     5.500000000
H     4.102000000     3.295000000     4.941000000
O     3.930000000    -0.797000000    -5.556000000
H     3.617000000    -0.447000000    -6.390000000
H     3.141000000    -0.876000000    -5.019000000
O    -4.162000000    -1.298000000     0.580000000
H    -3.868000000    -0.781000000     1.330000000
H    -4.491000000    -2.111000000     0.964000000
O    -1.975000000     1.897000000     4.616000000
H    -1.143000000     2.327000000     4.417000000
H    -1.725000000     1.053000000     4.992000000
O    -0.568000000    -0.490000000     5.458000000
H     0.344000000    -0.486000000     5.170000000
H    -0.518000000    -0.432000000     6.412000000
O    -2.725000000     1.548000000    -1.606000000
H    -2.442000000     1.200000000    -2.451000000
H    -3.591000000     1.164000000    -1.466000000
O     6.325000000     0.188000000    -0.292000000
H     6.030000000     1.095000000    -0.212000000
H     6.215000000    -0.178000000     0.585000000
O    -5.646000000     2.501000000    -2.134000000
H    -6.547000000     2.402000000    -1.826000000
H    -5.168000000     1.789000000    -1.709000000
O     5.370000000     3.019000000     0.392000000
H     4.440000000     3.010000000     0.621000000
H     5.805000000     3.368000000     1.170000000
O    -5.307000000    -3.259000000     1.953000000
H    -4.557000000    -3.802000000     2.198000000
H    -6.021000000    -3.573000000     2.509000000
O     6.049000000     4.197000000     2.692000000
H     5.098000000     4.285000000     2.766000000
H     6.381000000     5.087000000     2.811000000
O     3.673000000     2.279000000    -2.574000000
H     3.451000000     2.628000000    -1.711000000
H     3.188000000     2.830000000    -3.188000000
O     1.529000000    -4.018000000    -4.626000000
H     1.861000000    -4.085000000    -5.521000000
H     1.780000000    -3.138000000    -4.343000000
O     1.243000000     6.650000000    -2.028000000
H     1.841000000     6.746000000    -2.769000000
H     1.811000000     6.437000000    -1.288000000
O    -7.309000000    -2.536000000     0.249000000
H    -6.551000000    -2.953000000     0.657000000
H    -7.313000000    -2.869000000    -0.648000000
O    -0.834000000    -3.939000000     2.557000000
H    -0.542000000    -4.572000000     3.213000000
H    -1.083000000    -3.166000000     3.064000000
O    -3.208000000    -3.514000000    -6.321000000
H    -2.743000000    -3.328000000    -5.505000000
H    -3.075000000    -2.732000000    -6.856000000
O     0.403000000     2.999000000    -4.397000000
H     0.071000000     3.312000000    -3.555000000
H     0.798000000     3.772000000    -4.801000000
O    -2.376000000     2.128000000     0.991000000
H    -2.127000000     1.228000000     1.203000000
H    -2.229000000     2.201000000     0.048000000
O     3.480000000     4.219000000     3.387000000
H     3.077000000     3.749000000     2.657000000
H     3.376000000     5.144000000     3.163000000
O    -0.751000000     4.303000000     1.245000000
H    -1.486000000     3.708000000     1.096000000
H    -0.657000000     4.333000000     2.197000000
O     0.112000000    -3.857000000    -0.191000000
H    -0.197000000    -4.016000000     0.701000000
H     0.863000000    -3.274000000    -0.084000000
O     2.424000000    -2.097000000     2.830000000
H     2.544000000    -1.161000000     2.994000000
H     2.126000000    -2.450000000     3.669000000
O     2.018000000    -1.338000000    -3.694000000
H     1.348000000    -0.704000000    -3.951000000
H     2.485000000    -0.915000000    -2.974000000
O    -2.954000000     1.061000000    -4.329000000
H    -3.655000000     0.491000000    -4.645000000
H    -3.131000000     1.907000000    -4.741000000
O     3.161000000     4.147000000    -4.324000000
H     3.265000000     5.066000000    -4.077000000
H     2.610000000     4.170000000    -5.106000000
O    -6.279000000     1.342000000     3.029000000
H    -6.232000000     1.492000000     3.973000000
H    -5.713000000     0.585000000     2.879000000
O    -3.267000000    -5.032000000     1.966000000
H    -3.255000000    -5.955000000     2.221000000
H    -2.356000000    -4.750000000     2.043000000
O    -3.650000000     0.190000000     3.055000000
H    -3.324000000    -0.637000000     3.410000000
H    -3.097000000     0.858000000     3.459000000
O     2.404000000    -2.151000000    -0.016000000
H     2.023000000    -1.880000000     0.819000000
H     2.510000000    -1.336000000    -0.506000000
O    -1.266000000    -2.000000000    -4.742000000
H    -0.760000000    -1.188000000    -4.725000000
H    -0.773000000    -2.602000000    -4.185000000
O    -5.169000000    -0.270000000    -1.670000000
H    -5.606000000    -0.915000000    -2.227000000
H    -4.735000000    -0.792000000    -0.995000000
O    -3.782000000    -6.364000000    -1.167000000
H    -3.607000000    -6.191000000    -0.242000000
H    -2.939000000    -6.644000000    -1.522000000
O     6.679000000     1.917000000    -2.916000000
H     6.739000000     2.288000000    -2.035000000
H     5.740000000     1.823000000    -3.072000000
O    -0.613000000    -3.819000000    -2.775000000
H     0.144000000    -4.314000000    -3.087000000
H    -0.405000000    -3.613000000    -1.863000000
O     5.782000000     4.977000000    -1.656000000
H     5.036000000     5.458000000    -2.016000000
H     5.392000000     4.361000000    -1.036000000
O     2.279000000    -0.363000000     5.515000000
H     2.803000000    -1.038000000     5.945000000
H     2.702000000    -0.235000000     4.666000000
O     3.388000000     6.802000000     2.113000000
H     3.247000000     7.712000000     1.851000000
H     2.755000000     6.304000000     1.595000000
O    -0.089000000     4.055000000    -1.799000000
H     0.351000000     3.518000000    -1.140000000
H     0.531000000     4.758000000    -1.989000000
