158
-3004.72516
C     0.538000000    -0.423000000     1.361000000
H     0.955000000    -0.843000000     2.272000000
C     0.696000000    -1.103000000     0.138000000
H     1.258000000    -2.032000000     0.086000000
C     0.053000000    -0.658000000    -1.006000000
H     0.142000000    -1.227000000    -1.968000000
C    -0.439000000     0.626000000    -1.072000000
H    -0.856000000     0.957000000    -2.020000000
C    -0.611000000     1.344000000     0.118000000
H    -1.205000000     2.254000000     0.129000000
C    -0.145000000     0.790000000     1.363000000
C    -0.230000000     1.672000000     2.571000000
O     0.407000000     1.228000000     3.530000000
O    -0.683000000     2.745000000     2.578000000
O     3.477000000    -1.078000000    -2.073000000
H     2.776000000    -1.606000000    -1.691000000
H     4.111000000    -0.974000000    -1.364000000
O    -0.679000000     1.997000000     5.963000000
H    -0.161000000     1.789000000     5.186000000
H    -1.119000000     1.176000000     6.185000000
O     0.740000000    -3.525000000    -5.356000000
H     0.545000000    -2.926000000    -6.077000000
H     0.287000000    -3.149000000    -4.602000000
O     2.075000000    -2.631000000     3.780000000
H     2.119000000    -3.309000000     4.455000000
H     1.685000000    -3.071000000     3.025000000
O     0.147000000    -1.048000000     7.519000000
H     0.030000000    -1.994000000     7.609000000
H     0.938000000    -0.954000000     6.988000000
O     0.970000000    -0.091000000    -4.781000000
H     0.070000000    -0.417000000    -4.809000000
H     1.093000000     0.347000000    -5.623000000
O    -2.788000000    -4.194000000     0.360000000
H    -3.313000000    -4.401000000     1.133000000
H    -2.133000000    -4.891000000     0.322000000
O    -0.624000000     4.590000000     4.314000000
H    -0.570000000     4.045000000     3.529000000
H    -1.022000000     4.021000000     4.973000000
O    -5.117000000     2.465000000    -0.805000000
H    -4.698000000     2.516000000    -1.664000000
H    -4.817000000     3.250000000    -0.346000000
O     1.162000000     3.663000000     7.460000000
H     0.417000000     3.330000000     6.960000000
H     0.869000000     3.638000000     8.371000000
O     1.720000000     1.836000000    -2.948000000
H     1.732000000     1.484000000    -2.058000000
H     1.310000000     1.148000000    -3.472000000
O     0.022000000    -1.933000000    -7.505000000
H    -0.196000000    -1.467000000    -8.312000000
H    -0.688000000    -1.712000000    -6.902000000
O     2.808000000     1.485000000     2.510000000
H     2.907000000     2.424000000     2.355000000
H     2.052000000     1.416000000     3.092000000
O    -1.074000000     7.307000000     3.643000000
H    -0.342000000     7.737000000     4.084000000
H    -1.056000000     6.408000000     3.970000000
O    -3.365000000    -0.733000000     2.834000000
H    -2.466000000    -0.669000000     3.159000000
H    -3.271000000    -0.810000000     1.884000000
O     3.292000000     4.130000000     1.612000000
H     4.061000000     4.651000000     1.379000000
H     2.932000000     4.567000000     2.384000000
O     2.775000000     1.557000000    -0.189000000
H     2.840000000     1.457000000     0.761000000
H     2.114000000     0.916000000    -0.453000000
O    -1.227000000    -5.398000000    -2.587000000
H    -1.007000000    -6.281000000    -2.291000000
H    -1.696000000    -5.532000000    -3.411000000
O    -1.496000000    -0.990000000    -5.615000000
H    -2.310000000    -1.458000000    -5.428000000
H    -1.778000000    -0.191000000    -6.063000000
O     5.113000000    -0.238000000     2.300000000
H     5.184000000    -0.898000000     2.989000000
H     4.187000000     0.005000000     2.296000000
O    -4.987000000     5.074000000     2.132000000
H    -4.279000000     4.441000000     2.251000000
H    -5.712000000     4.557000000     1.778000000
O    -1.611000000     4.933000000    -4.433000000
H    -0.923000000     4.272000000    -4.358000000
H    -1.586000000     5.201000000    -5.351000000
O     1.251000000     4.768000000    -2.220000000
H     1.117000000     3.844000000    -2.430000000
H     2.202000000     4.879000000    -2.228000000
O     2.016000000    -0.654000000     5.799000000
H     2.255000000     0.212000000     5.468000000
H     1.606000000    -1.090000000     5.052000000
O    -3.322000000     2.373000000     4.658000000
H    -3.216000000     2.497000000     3.714000000
H    -2.446000000     2.144000000     4.968000000
O    -5.119000000    -0.275000000     0.282000000
H    -5.083000000     0.549000000    -0.204000000
H    -4.227000000    -0.618000000     0.239000000
O     0.859000000    -4.957000000    -1.025000000
H     1.291000000    -5.759000000    -1.320000000
H     0.085000000    -4.883000000    -1.584000000
O    -2.645000000    -1.328000000     0.186000000
H    -2.750000000    -2.279000000     0.158000000
H    -1.705000000    -1.187000000     0.072000000
O    -2.247000000     4.924000000    -0.740000000
H    -2.232000000     5.852000000    -0.973000000
H    -1.329000000     4.702000000    -0.582000000
O    -3.560000000     3.691000000    -3.215000000
H    -2.926000000     4.199000000    -3.722000000
H    -3.959000000     4.328000000    -2.624000000
O    -2.813000000     0.056000000     6.810000000
H    -3.655000000    -0.396000000     6.870000000
H    -2.373000000    -0.355000000     6.065000000
O    -3.729000000     0.571000000    -3.091000000
H    -3.275000000     1.413000000    -3.125000000
H    -3.039000000    -0.079000000    -3.222000000
O    -0.830000000    -3.330000000     3.111000000
H    -0.236000000    -3.931000000     2.662000000
H    -1.167000000    -3.834000000     3.852000000
O    -3.680000000    -2.595000000    -4.827000000
H    -4.124000000    -2.423000000    -3.996000000
H    -4.311000000    -2.327000000    -5.495000000
O     4.779000000    -2.588000000     3.550000000
H     3.870000000    -2.517000000     3.841000000
H     4.756000000    -3.238000000     2.848000000
O     1.137000000    -4.618000000     1.718000000
H     1.227000000    -4.720000000     0.770000000
H     0.864000000    -5.481000000     2.028000000
O    -3.015000000     3.367000000     1.718000000
H    -2.214000000     3.048000000     2.134000000
H    -2.754000000     3.571000000     0.820000000
O     3.706000000     0.440000000    -5.105000000
H     3.002000000     0.246000000    -4.487000000
H     3.669000000    -0.274000000    -5.742000000
O     3.504000000    -4.171000000    -1.111000000
H     3.798000000    -5.063000000    -1.296000000
H     2.614000000    -4.276000000    -0.776000000
O     5.204000000    -1.377000000     0.010000000
H     5.387000000    -2.289000000     0.236000000
H     5.186000000    -0.921000000     0.851000000
O     5.133000000    -2.836000000    -3.567000000
H     5.867000000    -2.440000000    -3.097000000
H     4.364000000    -2.612000000    -3.043000000
O    -1.312000000    -0.720000000     4.526000000
H    -1.025000000    -1.548000000     4.142000000
H    -0.705000000    -0.069000000     4.173000000
O     3.268000000     2.034000000     5.643000000
H     2.560000000     2.413000000     6.164000000
H     4.018000000     2.605000000     5.807000000
O     2.146000000     5.174000000     3.808000000
H     1.362000000     4.750000000     4.157000000
H     2.851000000     4.890000000     4.391000000
O    -5.225000000    -2.187000000    -2.774000000
H    -5.068000000    -1.354000000    -2.329000000
H    -5.459000000    -2.794000000    -2.072000000
O     3.471000000    -4.959000000    -4.153000000
H     2.755000000    -4.365000000    -3.925000000
H     4.262000000    -4.429000000    -4.053000000
O     0.343000000     4.386000000     0.649000000
H    -0.057000000     3.767000000     1.260000000
H     1.281000000     4.332000000     0.831000000
O     0.227000000     7.040000000    -0.164000000
H     0.074000000     6.118000000     0.039000000
H    -0.310000000     7.207000000    -0.939000000
