158
-3007.14574
C     0.182000000    -0.405000000     1.294000000
H     0.333000000    -0.743000000     2.316000000
C     0.304000000    -1.281000000     0.224000000
H     0.747000000    -2.262000000     0.376000000
C     0.082000000    -0.694000000    -1.033000000
H     0.338000000    -1.279000000    -1.875000000
C    -0.326000000     0.633000000    -1.143000000
H    -0.548000000     1.171000000    -2.061000000
C    -0.568000000     1.399000000    -0.031000000
H    -0.852000000     2.448000000    -0.025000000
C    -0.244000000     0.878000000     1.242000000
C    -0.409000000     1.666000000     2.538000000
O    -0.584000000     1.120000000     3.615000000
O    -0.161000000     2.843000000     2.457000000
O     2.721000000     2.315000000    -1.928000000
H     2.098000000     1.692000000    -1.554000000
H     2.761000000     3.027000000    -1.290000000
O    -1.345000000     2.396000000     5.878000000
H    -1.088000000     2.234000000     4.970000000
H    -0.857000000     1.747000000     6.385000000
O    -0.542000000    -1.740000000    -5.359000000
H    -1.085000000    -0.952000000    -5.386000000
H     0.302000000    -1.460000000    -5.712000000
O     2.462000000    -3.309000000     4.532000000
H     2.836000000    -4.190000000     4.519000000
H     1.520000000    -3.448000000     4.428000000
O     0.292000000     0.741000000     7.328000000
H     0.113000000    -0.197000000     7.262000000
H     0.814000000     0.830000000     8.126000000
O     2.217000000     0.784000000    -5.323000000
H     2.182000000     0.356000000    -4.468000000
H     1.308000000     1.022000000    -5.509000000
O    -3.233000000    -1.622000000    -2.950000000
H    -2.661000000    -2.313000000    -3.283000000
H    -4.041000000    -1.716000000    -3.453000000
O    -0.783000000     4.594000000     4.547000000
H    -0.597000000     4.097000000     3.750000000
H    -1.155000000     3.950000000     5.149000000
O    -4.713000000     1.573000000    -2.352000000
H    -4.236000000     2.219000000    -1.831000000
H    -4.577000000     0.745000000    -1.890000000
O     4.033000000    -0.622000000    -6.845000000
H     3.302000000    -0.315000000    -6.308000000
H     4.023000000    -1.573000000    -6.742000000
O     1.198000000     5.406000000    -1.026000000
H     1.615000000     5.041000000    -0.246000000
H     0.278000000     5.154000000    -0.946000000
O     0.639000000     3.934000000    -4.369000000
H     1.314000000     3.603000000    -4.960000000
H     0.011000000     3.215000000    -4.296000000
O    -0.747000000     0.723000000    -6.800000000
H    -1.463000000     0.088000000    -6.816000000
H    -0.452000000     0.775000000    -7.709000000
O     2.144000000     2.245000000     4.586000000
H     1.821000000     2.821000000     5.279000000
H     1.366000000     1.779000000     4.279000000
O    -5.722000000     2.734000000     0.933000000
H    -5.352000000     2.503000000     1.784000000
H    -4.962000000     2.944000000     0.390000000
O    -2.763000000     6.903000000     4.381000000
H    -1.962000000     6.387000000     4.472000000
H    -2.694000000     7.301000000     3.514000000
O    -4.301000000    -0.801000000     1.979000000
H    -3.497000000    -0.898000000     2.489000000
H    -4.006000000    -0.486000000     1.125000000
O     1.710000000     6.071000000     2.215000000
H     2.144000000     6.696000000     2.795000000
H     2.187000000     5.251000000     2.346000000
O     2.034000000     3.480000000     0.594000000
H     2.622000000     3.596000000     1.341000000
H     1.256000000     3.062000000     0.965000000
O    -3.177000000    -0.522000000    -6.320000000
H    -3.724000000    -1.183000000    -5.893000000
H    -3.801000000     0.112000000    -6.674000000
O     0.789000000    -5.429000000    -0.100000000
H     0.199000000    -5.378000000     0.653000000
H     1.610000000    -5.051000000     0.214000000
O     4.098000000     0.758000000     2.591000000
H     4.209000000    -0.189000000     2.675000000
H     3.382000000     0.968000000     3.191000000
O     3.432000000     3.952000000     2.750000000
H     4.231000000     4.167000000     3.231000000
H     2.975000000     3.326000000     3.312000000
O     3.192000000     0.007000000     6.470000000
H     2.800000000    -0.037000000     7.342000000
H     2.560000000     0.503000000     5.949000000
O     3.098000000    -5.031000000     1.476000000
H     3.971000000    -4.785000000     1.171000000
H     3.255000000    -5.724000000     2.118000000
O    -0.064000000    -1.958000000     6.968000000
H     0.227000000    -2.604000000     6.325000000
H    -0.894000000    -2.303000000     7.296000000
O    -2.046000000    -5.265000000    -1.847000000
H    -1.789000000    -6.120000000    -1.502000000
H    -2.645000000    -5.467000000    -2.566000000
O    -3.211000000    -0.372000000    -0.507000000
H    -3.247000000    -0.887000000    -1.313000000
H    -2.421000000     0.161000000    -0.598000000
O    -3.624000000     3.406000000    -0.727000000
H    -3.969000000     4.224000000    -1.085000000
H    -2.679000000     3.464000000    -0.863000000
O     3.175000000    -4.849000000    -3.791000000
H     2.546000000    -4.402000000    -4.358000000
H     3.828000000    -4.181000000    -3.585000000
O     4.887000000    -2.296000000    -2.909000000
H     4.926000000    -2.038000000    -1.988000000
H     5.609000000    -2.916000000    -3.014000000
O    -3.960000000     1.488000000     5.454000000
H    -4.095000000     1.211000000     6.360000000
H    -3.075000000     1.853000000     5.444000000
O    -0.253000000    -3.820000000     4.540000000
H    -0.210000000    -4.363000000     3.753000000
H    -0.828000000    -4.303000000     5.134000000
O    -5.674000000     1.095000000     3.387000000
H    -5.324000000     0.343000000     2.908000000
H    -5.037000000     1.253000000     4.083000000
O     4.398000000    -1.868000000     3.423000000
H     4.865000000    -2.640000000     3.742000000
H     3.485000000    -2.150000000     3.359000000
O    -1.216000000    -4.966000000     2.003000000
H    -2.107000000    -4.878000000     2.342000000
H    -1.094000000    -5.909000000     1.892000000
O    -3.432000000    -2.968000000    -0.213000000
H    -3.139000000    -2.080000000    -0.011000000
H    -2.701000000    -3.359000000    -0.692000000
O    -4.187000000     4.442000000     3.256000000
H    -3.454000000     5.014000000     3.481000000
H    -4.508000000     4.780000000     2.420000000
O     4.842000000     1.665000000    -3.934000000
H     4.414000000     1.501000000    -3.094000000
H     4.169000000     1.474000000    -4.587000000
O     0.601000000    -3.914000000    -2.657000000
H     1.449000000    -4.169000000    -2.293000000
H    -0.041000000    -4.322000000    -2.076000000
O    -1.265000000     1.897000000    -4.489000000
H    -0.865000000     1.517000000    -5.271000000
H    -2.151000000     1.535000000    -4.473000000
O     4.705000000    -1.430000000    -0.320000000
H     5.142000000    -2.119000000     0.180000000
H     4.101000000    -1.027000000     0.303000000
O     2.286000000    -1.869000000    -3.979000000
H     2.975000000    -1.955000000    -3.321000000
H     1.494000000    -2.177000000    -3.539000000
O    -2.036000000    -1.011000000     4.029000000
H    -1.410000000    -1.731000000     3.957000000
H    -1.520000000    -0.225000000     3.848000000
O     1.107000000     6.500000000     5.038000000
H     1.549000000     5.839000000     5.571000000
H     0.328000000     6.056000000     4.704000000
O    -0.165000000    -4.457000000    -5.154000000
H    -0.385000000    -3.577000000    -5.458000000
H     0.119000000    -4.334000000    -4.248000000
O    -0.917000000     5.001000000     0.903000000
H    -0.804000000     4.133000000     1.289000000
H    -0.067000000     5.426000000     1.017000000
O    -2.451000000     6.968000000    -0.402000000
H    -1.926000000     6.268000000    -0.015000000
H    -1.955000000     7.241000000    -1.174000000
