158
-3059.47386
C     0.896000000    -0.132000000     1.212000000
H     1.540000000    -0.404000000     2.045000000
C     0.721000000    -1.144000000     0.225000000
H     1.198000000    -2.120000000     0.250000000
C    -0.158000000    -0.905000000    -0.845000000
H    -0.383000000    -1.676000000    -1.529000000
C    -0.665000000     0.400000000    -1.053000000
H    -1.296000000     0.550000000    -1.925000000
C    -0.461000000     1.413000000    -0.155000000
H    -0.951000000     2.356000000    -0.382000000
C     0.339000000     1.206000000     0.984000000
C     0.626000000     2.282000000     2.040000000
O     1.256000000     1.913000000     3.012000000
O     0.152000000     3.391000000     1.886000000
O    -0.028000000     1.358000000     5.226000000
H     0.286000000     1.602000000     4.355000000
H     0.049000000     0.404000000     5.249000000
O    -2.108000000    -1.428000000    -4.516000000
H    -2.800000000    -1.055000000    -5.061000000
H    -1.295000000    -1.153000000    -4.939000000
O     2.060000000    -3.691000000     2.545000000
H     2.318000000    -4.039000000     3.398000000
H     1.218000000    -4.108000000     2.360000000
O    -0.827000000     4.679000000     3.876000000
H    -0.458000000     4.313000000     3.072000000
H    -1.709000000     4.309000000     3.925000000
O    -3.006000000     2.524000000    -2.780000000
H    -3.220000000     2.391000000    -1.857000000
H    -2.148000000     2.949000000    -2.767000000
O    -0.810000000     2.226000000     7.728000000
H    -1.276000000     3.007000000     7.431000000
H    -0.455000000     1.840000000     6.928000000
O     4.286000000     2.258000000    -0.057000000
H     4.821000000     2.593000000     0.662000000
H     4.515000000     2.810000000    -0.804000000
O    -3.894000000     0.631000000    -0.390000000
H    -3.091000000     0.426000000     0.090000000
H    -4.060000000    -0.148000000    -0.921000000
O    -2.286000000     4.276000000     6.632000000
H    -3.078000000     3.785000000     6.409000000
H    -1.729000000     4.195000000     5.857000000
O     3.094000000     0.289000000     4.152000000
H     2.502000000     0.977000000     3.850000000
H     3.814000000     0.759000000     4.572000000
O    -1.963000000    -1.176000000     1.590000000
H    -1.252000000    -0.717000000     1.143000000
H    -1.676000000    -1.233000000     2.501000000
O     4.654000000     5.742000000     1.874000000
H     3.735000000     5.839000000     1.625000000
H     4.677000000     4.935000000     2.390000000
O     2.434000000     1.080000000    -1.747000000
H     3.084000000     1.228000000    -1.059000000
H     1.813000000     0.463000000    -1.361000000
O     1.797000000    -6.428000000    -0.986000000
H     1.077000000    -6.047000000    -1.488000000
H     2.434000000    -5.717000000    -0.903000000
O     5.084000000    -0.385000000    -0.411000000
H     4.550000000    -0.773000000     0.283000000
H     4.863000000     0.546000000    -0.390000000
O    -4.582000000     4.796000000    -0.450000000
H    -3.875000000     4.412000000     0.069000000
H    -4.226000000     5.629000000    -0.761000000
O     3.056000000     3.675000000     3.500000000
H     3.785000000     3.185000000     3.121000000
H     2.273000000     3.242000000     3.159000000
O     3.320000000     5.749000000     5.414000000
H     3.486000000     5.206000000     4.643000000
H     2.414000000     5.553000000     5.653000000
O    -3.256000000     3.044000000     4.084000000
H    -4.170000000     3.241000000     3.880000000
H    -3.274000000     2.149000000     4.423000000
O     3.438000000    -4.289000000    -0.024000000
H     4.369000000    -4.476000000     0.091000000
H     3.133000000    -4.047000000     0.851000000
O    -6.279000000    -0.856000000    -2.700000000
H    -5.351000000    -0.809000000    -2.471000000
H    -6.433000000    -1.782000000    -2.886000000
O     1.424000000    -1.828000000     4.366000000
H     2.102000000    -1.158000000     4.453000000
H     1.689000000    -2.338000000     3.601000000
O    -3.639000000    -1.492000000    -2.183000000
H    -3.239000000    -2.333000000    -1.963000000
H    -3.185000000    -1.211000000    -2.977000000
O    -0.487000000     3.403000000    -2.895000000
H    -0.358000000     2.700000000    -3.532000000
H     0.386000000     3.565000000    -2.537000000
O    -3.259000000     2.680000000    -5.789000000
H    -3.109000000     2.710000000    -4.844000000
H    -4.191000000     2.878000000    -5.890000000
O    -0.436000000     2.498000000    -5.771000000
H     0.031000000     3.290000000    -6.037000000
H    -1.349000000     2.670000000    -5.999000000
O    -3.161000000     0.564000000     5.045000000
H    -3.336000000     0.237000000     5.927000000
H    -2.355000000     0.120000000     4.780000000
O    -3.471000000    -6.398000000     0.048000000
H    -3.426000000    -6.869000000    -0.784000000
H    -4.313000000    -6.656000000     0.424000000
O    -0.529000000    -4.455000000     2.073000000
H    -1.027000000    -4.453000000     1.255000000
H    -1.191000000    -4.363000000     2.757000000
O    -3.120000000    -5.354000000    -5.285000000
H    -2.334000000    -4.869000000    -5.538000000
H    -3.831000000    -4.719000000    -5.370000000
O     4.332000000    -1.388000000     2.286000000
H     3.718000000    -2.106000000     2.442000000
H     3.988000000    -0.662000000     2.806000000
O    -1.524000000    -4.722000000    -0.633000000
H    -1.075000000    -4.920000000    -1.455000000
H    -2.124000000    -5.457000000    -0.505000000
O     0.221000000    -5.180000000    -2.770000000
H     0.306000000    -5.298000000    -3.716000000
H     0.779000000    -4.428000000    -2.572000000
O    -4.601000000     2.639000000     1.605000000
H    -3.832000000     3.125000000     1.901000000
H    -4.246000000     1.943000000     1.051000000
O    -3.275000000    -3.235000000     0.654000000
H    -2.627000000    -3.778000000     0.207000000
H    -2.853000000    -2.380000000     0.740000000
O    -1.798000000     5.478000000    -1.107000000
H    -1.378000000     6.306000000    -1.341000000
H    -1.194000000     4.805000000    -1.420000000
O     5.575000000     3.105000000     2.582000000
H     6.038000000     3.145000000     3.419000000
H     6.203000000     3.442000000     1.944000000
O     2.098000000    -3.230000000    -2.116000000
H     2.631000000    -3.632000000    -2.802000000
H     2.515000000    -3.503000000    -1.299000000
O     1.584000000     3.794000000    -1.256000000
H     1.696000000     2.889000000    -0.964000000
H     1.755000000     4.320000000    -0.475000000
O     1.988000000    -0.961000000    -3.834000000
H     2.079000000    -0.151000000    -3.332000000
H     2.015000000    -1.655000000    -3.176000000
O     0.196000000    -1.440000000    -5.944000000
H     0.781000000    -1.650000000    -5.216000000
H     0.586000000    -0.666000000    -6.350000000
O    -1.639000000    -1.742000000     4.615000000
H    -1.810000000    -2.679000000     4.718000000
H    -0.685000000    -1.671000000     4.619000000
O     4.641000000    -1.194000000    -4.580000000
H     4.750000000    -2.144000000    -4.624000000
H     3.695000000    -1.063000000    -4.527000000
O     1.607000000     3.808000000     6.360000000
H     0.944000000     3.467000000     5.759000000
H     1.248000000     3.643000000     7.232000000
O    -0.649000000    -4.326000000    -5.542000000
H    -0.447000000    -3.408000000    -5.357000000
H    -0.240000000    -4.495000000    -6.391000000
O     1.851000000     5.270000000     1.230000000
H     1.327000000     4.481000000     1.365000000
H     1.371000000     5.958000000     1.691000000
O     0.373000000     6.899000000     2.906000000
H     0.455000000     7.488000000     3.656000000
H    -0.099000000     6.140000000     3.248000000
O    -2.309000000     4.114000000     0.956000000
H    -1.483000000     4.030000000     1.432000000
H    -2.079000000     4.597000000     0.162000000
