158
-3015.16954
C    -0.553000000    -0.813000000     1.047000000
H    -0.989000000    -1.543000000     1.725000000
C    -0.505000000    -1.206000000    -0.273000000
H    -0.826000000    -2.191000000    -0.604000000
C     0.084000000    -0.322000000    -1.187000000
H     0.096000000    -0.389000000    -2.185000000
C     0.516000000     0.888000000    -0.678000000
H     0.698000000     1.680000000    -1.400000000
C     0.567000000     1.238000000     0.652000000
H     0.891000000     2.239000000     0.926000000
C    -0.016000000     0.368000000     1.557000000
C    -0.110000000     0.713000000     2.967000000
O    -0.519000000    -0.048000000     3.843000000
O     0.181000000     1.810000000     3.344000000
O     4.899000000     1.348000000    -6.033000000
H     5.804000000     1.160000000    -5.782000000
H     4.377000000     0.717000000    -5.537000000
O    -3.678000000    -0.702000000    -0.786000000
H    -3.012000000    -1.186000000    -1.275000000
H    -3.313000000     0.178000000    -0.691000000
O     5.883000000     1.182000000    -1.384000000
H     5.196000000     0.793000000    -0.843000000
H     6.514000000     0.474000000    -1.516000000
O     1.512000000    -0.140000000    -8.510000000
H     1.822000000    -0.434000000    -7.653000000
H     2.107000000     0.570000000    -8.749000000
O     3.978000000     1.012000000     1.923000000
H     3.974000000     0.279000000     2.538000000
H     4.329000000     0.644000000     1.112000000
O     2.213000000    -4.042000000     0.794000000
H     1.261000000    -3.954000000     0.765000000
H     2.414000000    -4.697000000     0.126000000
O    -0.947000000     3.670000000     2.157000000
H    -0.555000000     2.875000000     2.518000000
H    -0.773000000     4.342000000     2.816000000
O    -4.775000000    -1.485000000     1.643000000
H    -4.341000000    -1.411000000     0.793000000
H    -4.571000000    -0.662000000     2.089000000
O     5.023000000     4.387000000     1.353000000
H     4.770000000     3.491000000     1.575000000
H     4.659000000     4.921000000     2.059000000
O    -5.149000000     2.624000000    -4.147000000
H    -5.534000000     3.401000000    -3.742000000
H    -4.268000000     2.573000000    -3.776000000
O    -0.223000000    -3.221000000    -7.124000000
H    -0.244000000    -4.151000000    -7.350000000
H     0.338000000    -3.176000000    -6.349000000
O     0.498000000    -3.445000000     4.074000000
H    -0.046000000    -2.729000000     3.746000000
H     0.276000000    -3.510000000     5.003000000
O    -0.555000000    -5.431000000     2.586000000
H    -0.157000000    -4.743000000     3.120000000
H    -0.996000000    -6.000000000     3.218000000
O    -4.532000000    -2.477000000    -5.246000000
H    -4.789000000    -3.329000000    -4.893000000
H    -5.137000000    -1.857000000    -4.839000000
O    -1.723000000    -2.849000000    -4.397000000
H    -2.463000000    -2.502000000    -4.895000000
H    -2.078000000    -3.610000000    -3.938000000
O    -1.570000000    -1.249000000     5.928000000
H    -1.969000000    -2.103000000     5.761000000
H    -1.237000000    -0.969000000     5.075000000
O     0.346000000     6.728000000    -2.489000000
H     0.913000000     6.094000000    -2.050000000
H    -0.532000000     6.355000000    -2.416000000
O     3.499000000    -2.735000000    -2.373000000
H     3.656000000    -1.797000000    -2.487000000
H     3.743000000    -3.122000000    -3.214000000
O    -3.875000000    -4.413000000     2.466000000
H    -3.307000000    -4.551000000     1.708000000
H    -4.679000000    -4.044000000     2.100000000
O     1.725000000     3.303000000    -3.973000000
H     1.502000000     3.575000000    -4.864000000
H     2.539000000     2.808000000    -4.071000000
O     0.916000000    -2.132000000    -4.462000000
H     0.022000000    -2.323000000    -4.179000000
H     1.464000000    -2.400000000    -3.725000000
O     1.939000000    -0.779000000     5.125000000
H     1.932000000    -0.449000000     6.023000000
H     1.163000000    -0.390000000     4.720000000
O    -0.021000000     1.818000000     6.564000000
H     0.575000000     2.567000000     6.557000000
H    -0.180000000     1.631000000     5.639000000
O    -3.703000000     0.779000000     6.238000000
H    -2.960000000     0.226000000     6.479000000
H    -3.780000000     1.404000000     6.959000000
O     4.095000000    -0.222000000    -3.653000000
H     4.382000000     0.383000000    -2.969000000
H     4.773000000    -0.898000000    -3.675000000
O    -0.517000000    -4.780000000    -1.993000000
H     0.243000000    -5.258000000    -1.659000000
H    -0.438000000    -4.840000000    -2.945000000
O     4.253000000     3.380000000    -1.860000000
H     4.388000000     3.795000000    -2.712000000
H     4.882000000     2.658000000    -1.843000000
O    -2.697000000     1.660000000    -6.149000000
H    -2.199000000     0.850000000    -6.040000000
H    -2.853000000     1.967000000    -5.256000000
O     3.588000000    -3.297000000     5.469000000
H     2.994000000    -2.612000000     5.164000000
H     4.444000000    -2.872000000     5.509000000
O     0.282000000     3.016000000    -6.706000000
H     0.171000000     3.946000000    -6.512000000
H    -0.603000000     2.653000000    -6.655000000
O    -3.144000000    -5.014000000    -3.034000000
H    -2.343000000    -5.402000000    -2.681000000
H    -3.502000000    -5.687000000    -3.612000000
O    -3.653000000     0.571000000     3.280000000
H    -2.774000000     0.257000000     3.068000000
H    -3.661000000     0.634000000     4.236000000
O     3.397000000     3.019000000     6.027000000
H     2.851000000     3.648000000     6.498000000
H     3.123000000     3.101000000     5.113000000
O    -2.704000000     2.595000000    -0.364000000
H    -2.154000000     2.552000000     0.418000000
H    -3.427000000     3.172000000    -0.118000000
O    -2.042000000    -4.722000000     0.267000000
H    -1.357000000    -4.935000000     0.900000000
H    -1.600000000    -4.751000000    -0.582000000
O     2.581000000    -1.608000000     2.491000000
H     2.147000000    -2.260000000     1.941000000
H     2.137000000    -1.674000000     3.336000000
O    -2.614000000     2.716000000    -3.055000000
H    -2.609000000     2.771000000    -2.100000000
H    -1.903000000     2.109000000    -3.264000000
O    -1.800000000    -0.774000000    -6.212000000
H    -2.577000000    -1.320000000    -6.327000000
H    -1.068000000    -1.352000000    -6.427000000
O     0.523000000    -0.804000000     7.662000000
H     0.271000000     0.119000000     7.695000000
H    -0.047000000    -1.185000000     6.994000000
O     4.123000000    -3.351000000    -4.923000000
H     4.089000000    -4.235000000    -5.290000000
H     4.606000000    -2.841000000    -5.573000000
O    -0.607000000     5.465000000     0.205000000
H     0.252000000     5.116000000    -0.034000000
H    -0.892000000     4.918000000     0.936000000
O     1.701000000     4.600000000    -1.278000000
H     1.857000000     4.132000000    -2.098000000
H     2.421000000     4.328000000    -0.708000000
O     3.582000000    -0.018000000    -0.657000000
H     3.191000000    -0.888000000    -0.589000000
H     2.856000000     0.552000000    -0.912000000
O    -2.720000000    -3.444000000     4.800000000
H    -2.510000000    -4.327000000     5.104000000
H    -3.147000000    -3.578000000     3.953000000
O     2.727000000     2.980000000     3.423000000
H     2.976000000     2.279000000     2.821000000
H     1.831000000     2.767000000     3.682000000
O    -1.084000000     0.615000000    -3.941000000
H    -0.152000000     0.622000000    -3.726000000
H    -1.147000000     0.060000000    -4.718000000
O     2.692000000    -1.057000000    -6.181000000
H     3.474000000    -1.291000000    -5.682000000
H     1.966000000    -1.220000000    -5.579000000
O     3.803000000     5.536000000     3.429000000
H     3.030000000     4.991000000     3.580000000
H     4.316000000     5.451000000     4.233000000
