158
-3019.00306
C     1.319000000    -0.383000000    -0.505000000
H     2.308000000    -0.762000000    -0.750000000
C     0.975000000    -0.109000000     0.840000000
H     1.787000000    -0.036000000     1.559000000
C    -0.288000000     0.150000000     1.220000000
H    -0.519000000     0.576000000     2.163000000
C    -1.276000000     0.171000000     0.247000000
H    -2.254000000     0.552000000     0.530000000
C    -0.964000000    -0.076000000    -1.120000000
H    -1.770000000     0.037000000    -1.840000000
C     0.351000000    -0.276000000    -1.536000000
C     0.723000000    -0.288000000    -3.027000000
O    -0.165000000    -0.211000000    -3.899000000
O     1.834000000    -0.560000000    -3.402000000
O     1.120000000     3.154000000    -3.051000000
H     1.462000000     3.090000000    -3.943000000
H     0.170000000     3.119000000    -3.156000000
O    -4.078000000    -1.624000000    -5.612000000
H    -4.202000000    -2.572000000    -5.574000000
H    -3.134000000    -1.502000000    -5.512000000
O    -4.145000000     3.488000000     1.708000000
H    -4.518000000     4.289000000     2.077000000
H    -4.265000000     2.831000000     2.393000000
O    -0.809000000    -1.648000000    -6.977000000
H    -0.596000000    -0.715000000    -6.947000000
H    -0.217000000    -2.050000000    -6.342000000
O     3.030000000     2.055000000     4.998000000
H     3.391000000     1.741000000     4.169000000
H     2.238000000     1.534000000     5.127000000
O    -0.727000000    -3.782000000    -1.421000000
H    -0.255000000    -3.517000000    -2.211000000
H    -1.619000000    -3.955000000    -1.722000000
O    -1.767000000     2.181000000     6.814000000
H    -1.706000000     2.808000000     6.093000000
H    -2.699000000     1.970000000     6.870000000
O     4.610000000     1.013000000    -0.026000000
H     3.997000000     1.086000000    -0.757000000
H     5.297000000     1.650000000    -0.225000000
O    -2.965000000    -1.980000000    -2.793000000
H    -2.176000000    -1.576000000    -2.431000000
H    -2.939000000    -2.883000000    -2.476000000
O    -0.749000000    -4.900000000    -4.484000000
H    -0.498000000    -5.040000000    -5.397000000
H    -1.601000000    -4.468000000    -4.533000000
O    -4.839000000     2.360000000    -3.882000000
H    -4.463000000     2.150000000    -3.027000000
H    -4.202000000     2.025000000    -4.513000000
O     1.624000000     4.274000000     4.389000000
H     2.393000000     4.531000000     3.881000000
H     1.881000000     3.455000000     4.815000000
O     1.199000000     0.610000000    -6.038000000
H     0.668000000     0.418000000    -5.265000000
H     1.790000000     1.308000000    -5.755000000
O    -2.209000000    -4.839000000     3.317000000
H    -2.266000000    -4.285000000     4.096000000
H    -1.581000000    -4.392000000     2.750000000
O     2.551000000    -0.501000000    -8.269000000
H     2.043000000    -0.199000000    -9.022000000
H     2.082000000    -0.155000000    -7.510000000
O     3.764000000    -3.061000000    -5.523000000
H     4.239000000    -2.474000000    -6.112000000
H     2.842000000    -2.927000000    -5.744000000
O     0.811000000    -3.692000000     2.900000000
H     0.508000000    -4.313000000     2.237000000
H     1.337000000    -4.220000000     3.501000000
O    -5.599000000    -1.477000000    -2.463000000
H    -4.695000000    -1.308000000    -2.728000000
H    -5.810000000    -2.323000000    -2.859000000
O    -0.357000000    -1.844000000     4.666000000
H     0.107000000    -2.527000000     4.181000000
H    -1.238000000    -2.196000000     4.792000000
O    -2.591000000     0.527000000     3.599000000
H    -1.832000000     1.040000000     3.876000000
H    -3.344000000     1.069000000     3.833000000
O     3.834000000     1.167000000    -2.677000000
H     3.127000000     0.535000000    -2.809000000
H     4.517000000     0.893000000    -3.289000000
O    -0.631000000     5.076000000     2.783000000
H    -0.997000000     4.613000000     3.536000000
H     0.309000000     4.902000000     2.827000000
O     5.825000000     0.089000000     4.290000000
H     6.739000000     0.250000000     4.059000000
H     5.325000000     0.645000000     3.693000000
O    -1.704000000     3.357000000    -2.940000000
H    -1.972000000     3.310000000    -2.022000000
H    -1.467000000     4.274000000    -3.074000000
O     5.061000000     3.271000000    -1.986000000
H     5.940000000     2.891000000    -1.978000000
H     4.522000000     2.616000000    -2.429000000
O    -5.147000000     1.768000000     3.820000000
H    -5.625000000     2.382000000     4.378000000
H    -5.825000000     1.204000000     3.449000000
O    -2.754000000    -2.952000000     5.307000000
H    -3.595000000    -2.529000000     5.130000000
H    -2.788000000    -3.171000000     6.238000000
O    -1.207000000     3.583000000    -6.794000000
H    -1.402000000     2.693000000    -6.502000000
H    -0.949000000     4.046000000    -5.996000000
O     4.516000000     1.640000000     2.570000000
H     4.296000000     2.564000000     2.684000000
H     4.526000000     1.511000000     1.622000000
O     0.658000000     2.811000000    -0.132000000
H     0.598000000     2.827000000    -1.087000000
H     0.642000000     1.880000000     0.093000000
O    -3.880000000     2.446000000    -1.041000000
H    -4.133000000     1.606000000    -0.660000000
H    -3.785000000     3.032000000    -0.290000000
O    -1.549000000    -2.805000000     1.000000000
H    -1.360000000    -3.173000000     0.137000000
H    -1.076000000    -1.973000000     1.015000000
O     2.588000000     3.096000000    -5.439000000
H     2.723000000     4.035000000    -5.314000000
H     2.983000000     2.908000000    -6.290000000
O    -2.013000000     1.408000000    -4.695000000
H    -1.814000000     2.144000000    -4.116000000
H    -1.427000000     0.709000000    -4.404000000
O     0.719000000     0.552000000     5.098000000
H     0.047000000     1.110000000     5.490000000
H     0.280000000    -0.287000000     4.956000000
O    -3.961000000    -1.739000000     2.546000000
H    -3.574000000    -0.978000000     2.981000000
H    -3.275000000    -2.051000000     1.956000000
O     2.417000000    -3.531000000    -2.640000000
H     3.360000000    -3.544000000    -2.803000000
H     2.162000000    -2.620000000    -2.787000000
O     5.349000000     0.795000000    -4.898000000
H     4.674000000     0.535000000    -5.524000000
H     5.691000000     1.620000000    -5.244000000
O     7.024000000    -2.943000000    -1.227000000
H     6.450000000    -2.543000000    -0.573000000
H     6.450000000    -3.120000000    -1.973000000
O    -1.888000000     4.489000000     5.349000000
H    -1.732000000     5.391000000     5.068000000
H    -2.715000000     4.528000000     5.829000000
O     2.373000000    -5.447000000    -0.725000000
H     2.435000000    -4.825000000    -1.450000000
H     2.919000000    -6.185000000    -0.995000000
O     2.855000000    -3.437000000     0.901000000
H     2.593000000    -4.266000000     0.501000000
H     2.133000000    -3.217000000     1.490000000
O     5.367000000    -4.271000000    -3.747000000
H     5.995000000    -4.797000000    -4.242000000
H     4.794000000    -3.893000000    -4.413000000
O     1.015000000    -2.780000000    -5.376000000
H     1.309000000    -2.131000000    -4.738000000
H     0.889000000    -3.579000000    -4.864000000
O    -4.986000000     0.170000000    -0.343000000
H    -5.302000000    -0.418000000    -1.029000000
H    -5.364000000    -0.179000000     0.464000000
O    -2.101000000     4.680000000     0.358000000
H    -2.771000000     4.092000000     0.708000000
H    -1.627000000     4.989000000     1.130000000
O     1.519000000     5.191000000     0.818000000
H     1.008000000     4.399000000     0.655000000
H     1.960000000     5.367000000    -0.014000000
O     5.275000000    -1.578000000     0.363000000
H     4.471000000    -2.098000000     0.371000000
H     4.974000000    -0.673000000     0.283000000
