158
-3067.47524
C    -0.357000000    -0.811000000     1.174000000
H    -0.657000000    -1.464000000     1.989000000
C    -0.788000000    -1.061000000    -0.108000000
H    -1.422000000    -1.935000000    -0.229000000
C    -0.329000000    -0.326000000    -1.191000000
H    -0.611000000    -0.642000000    -2.161000000
C     0.404000000     0.838000000    -0.930000000
H     0.763000000     1.431000000    -1.767000000
C     0.737000000     1.238000000     0.381000000
H     1.204000000     2.149000000     0.748000000
C     0.310000000     0.414000000     1.453000000
C     0.740000000     0.794000000     2.864000000
O     0.499000000     0.083000000     3.797000000
O     1.343000000     1.837000000     3.096000000
O     3.018000000     1.351000000     5.122000000
H     2.268000000     1.458000000     4.536000000
H     2.637000000     1.043000000     5.944000000
O    -1.218000000     3.276000000    -3.634000000
H    -1.598000000     3.857000000    -4.293000000
H    -1.948000000     2.728000000    -3.348000000
O     1.013000000     3.434000000     7.192000000
H     0.654000000     3.707000000     6.348000000
H     0.992000000     2.478000000     7.163000000
O    -0.417000000     3.844000000     1.245000000
H     0.525000000     3.812000000     1.411000000
H    -0.531000000     4.586000000     0.651000000
O    -1.583000000     1.313000000    -6.551000000
H    -1.936000000     0.630000000    -5.980000000
H    -0.885000000     1.718000000    -6.037000000
O     2.354000000     5.829000000     3.591000000
H     2.635000000     5.180000000     2.946000000
H     3.098000000     5.912000000     4.188000000
O    -2.308000000     2.058000000     0.119000000
H    -1.597000000     2.627000000     0.413000000
H    -1.873000000     1.247000000    -0.144000000
O    -2.853000000    -1.972000000    -6.936000000
H    -2.830000000    -2.379000000    -7.802000000
H    -2.002000000    -2.180000000    -6.550000000
O     1.082000000     0.267000000     6.943000000
H     1.542000000     0.337000000     7.780000000
H     0.198000000    -0.016000000     7.178000000
O     2.500000000     4.614000000     0.430000000
H     2.795000000     4.062000000    -0.294000000
H     3.037000000     4.342000000     1.174000000
O    -4.635000000    -4.607000000    -0.400000000
H    -5.141000000    -3.818000000    -0.591000000
H    -4.210000000    -4.423000000     0.437000000
O    -1.596000000    -0.028000000     5.269000000
H    -0.810000000    -0.187000000     4.746000000
H    -1.885000000     0.846000000     5.008000000
O     4.456000000    -0.774000000     4.196000000
H     3.739000000    -1.286000000     4.571000000
H     4.307000000     0.116000000     4.516000000
O    -3.285000000     0.312000000    -4.007000000
H    -3.274000000    -0.244000000    -3.228000000
H    -3.979000000    -0.056000000    -4.554000000
O    -4.086000000     2.918000000    -6.195000000
H    -4.875000000     2.562000000    -5.787000000
H    -3.420000000     2.244000000    -6.059000000
O     0.787000000     2.020000000    -5.141000000
H     0.533000000     2.614000000    -4.435000000
H     1.484000000     2.483000000    -5.605000000
O     0.015000000    -3.680000000     2.238000000
H    -0.446000000    -3.373000000     3.018000000
H     0.252000000    -4.585000000     2.441000000
O    -6.238000000    -0.199000000    -2.885000000
H    -5.286000000    -0.251000000    -2.970000000
H    -6.441000000    -0.749000000    -2.129000000
O    -1.304000000     5.150000000    -1.279000000
H    -1.227000000     4.448000000    -1.925000000
H    -2.166000000     5.532000000    -1.440000000
O    -1.799000000    -5.281000000    -4.096000000
H    -1.867000000    -6.038000000    -4.677000000
H    -0.922000000    -5.346000000    -3.719000000
O    -0.241000000     3.544000000     4.509000000
H    -1.029000000     3.018000000     4.372000000
H     0.400000000     3.175000000     3.901000000
O    -2.669000000     2.207000000     4.474000000
H    -3.121000000     2.441000000     5.285000000
H    -2.942000000     2.877000000     3.846000000
O    -1.349000000    -0.555000000     8.202000000
H    -1.827000000    -1.320000000     8.521000000
H    -1.788000000    -0.323000000     7.383000000
O    -1.325000000    -2.955000000     4.553000000
H    -1.646000000    -2.053000000     4.533000000
H    -2.096000000    -3.478000000     4.771000000
O    -2.552000000    -4.813000000     1.316000000
H    -1.735000000    -4.355000000     1.510000000
H    -2.319000000    -5.436000000     0.627000000
O     0.897000000    -1.665000000    -6.577000000
H     0.396000000    -1.049000000    -7.112000000
H     0.285000000    -2.379000000    -6.399000000
O    -0.672000000    -3.720000000    -6.476000000
H    -1.136000000    -3.673000000    -5.640000000
H    -1.058000000    -4.472000000    -6.924000000
O    -4.620000000    -4.553000000    -3.606000000
H    -3.859000000    -4.777000000    -4.142000000
H    -4.289000000    -4.551000000    -2.708000000
O    -1.256000000    -6.212000000    -0.595000000
H    -0.783000000    -5.822000000    -1.331000000
H    -0.569000000    -6.560000000    -0.027000000
O     1.036000000     6.387000000    -1.097000000
H     1.418000000     5.842000000    -0.410000000
H     0.091000000     6.263000000    -1.004000000
O    -3.956000000    -1.848000000    -2.504000000
H    -3.496000000    -1.940000000    -1.670000000
H    -4.735000000    -2.397000000    -2.410000000
O    -3.079000000     0.287000000     2.429000000
H    -2.521000000     0.517000000     3.172000000
H    -2.869000000     0.940000000     1.761000000
O     5.500000000     2.367000000     4.250000000
H     4.675000000     2.058000000     4.625000000
H     5.867000000     2.942000000     4.921000000
O    -3.874000000    -1.831000000     0.602000000
H    -4.434000000    -1.056000000     0.567000000
H    -3.299000000    -1.678000000     1.351000000
O     1.009000000    -3.087000000     6.875000000
H     0.187000000    -2.601000000     6.826000000
H     1.503000000    -2.801000000     6.106000000
O    -5.604000000    -0.371000000     2.942000000
H    -4.647000000    -0.346000000     2.958000000
H    -5.869000000     0.144000000     3.704000000
O     3.619000000     0.078000000     1.708000000
H     3.821000000    -0.222000000     2.594000000
H     3.318000000    -0.707000000     1.252000000
O     2.291000000    -1.996000000     0.480000000
H     1.991000000    -1.559000000    -0.318000000
H     1.500000000    -2.387000000     0.850000000
O    -0.462000000     6.123000000     3.762000000
H    -0.579000000     5.283000000     4.204000000
H     0.458000000     6.129000000     3.496000000
O     2.138000000    -2.770000000    -2.675000000
H     2.963000000    -2.769000000    -2.190000000
H     2.104000000    -1.910000000    -3.092000000
O     0.600000000    -5.000000000    -2.623000000
H     1.227000000    -4.282000000    -2.541000000
H     0.938000000    -5.681000000    -2.042000000
O    -1.788000000    -2.266000000    -4.390000000
H    -2.688000000    -2.047000000    -4.148000000
H    -1.510000000    -2.900000000    -3.729000000
O     3.939000000     3.577000000    -1.545000000
H     4.682000000     4.159000000    -1.707000000
H     3.978000000     2.936000000    -2.255000000
O     1.910000000    -2.164000000     4.327000000
H     1.442000000    -1.328000000     4.320000000
H     1.500000000    -2.673000000     3.628000000
O     5.882000000     1.842000000     1.454000000
H     5.250000000     1.244000000     1.053000000
H     5.669000000     1.825000000     2.387000000
O     3.495000000     3.573000000     2.738000000
H     2.942000000     2.817000000     2.938000000
H     4.339000000     3.364000000     3.137000000
O     1.525000000    -0.590000000    -4.138000000
H     1.403000000     0.354000000    -4.240000000
H     1.065000000    -0.973000000    -4.885000000
O     4.476000000     0.042000000    -4.987000000
H     3.536000000    -0.048000000    -4.827000000
H     4.620000000    -0.406000000    -5.821000000
