158
-3021.06937
C    -1.351000000    -0.266000000     0.520000000
H    -2.412000000    -0.257000000     0.755000000
C    -0.822000000    -0.833000000    -0.623000000
H    -1.508000000    -1.387000000    -1.260000000
C     0.495000000    -0.508000000    -0.994000000
H     0.942000000    -1.046000000    -1.827000000
C     1.304000000     0.332000000    -0.257000000
H     2.306000000     0.538000000    -0.623000000
C     0.775000000     0.844000000     0.943000000
H     1.398000000     1.451000000     1.595000000
C    -0.574000000     0.567000000     1.324000000
C    -1.122000000     1.288000000     2.525000000
O    -2.141000000     0.952000000     3.017000000
O    -0.583000000     2.272000000     3.048000000
O     2.066000000     1.198000000    -3.772000000
H     2.645000000     0.521000000    -3.419000000
H     2.109000000     1.078000000    -4.721000000
O    -1.860000000     2.047000000    -1.566000000
H    -2.483000000     1.607000000    -2.145000000
H    -1.299000000     1.344000000    -1.240000000
O    -0.993000000    -2.614000000    -3.418000000
H    -0.300000000    -2.169000000    -3.906000000
H    -0.543000000    -3.316000000    -2.948000000
O    -3.387000000     2.707000000     4.934000000
H    -3.636000000     2.126000000     5.652000000
H    -2.970000000     2.130000000     4.293000000
O     5.675000000     1.089000000     1.745000000
H     4.892000000     1.113000000     2.294000000
H     6.038000000     1.973000000     1.805000000
O     1.245000000    -2.353000000     1.519000000
H     0.621000000    -2.777000000     0.929000000
H     1.416000000    -1.503000000     1.115000000
O    -5.586000000     3.513000000     3.425000000
H    -6.296000000     3.489000000     4.066000000
H    -4.796000000     3.332000000     3.934000000
O     3.788000000    -2.687000000    -2.532000000
H     4.473000000    -3.017000000    -3.112000000
H     3.221000000    -2.167000000    -3.101000000
O    -1.631000000     4.768000000     2.309000000
H    -1.278000000     3.935000000     2.622000000
H    -2.141000000     5.104000000     3.046000000
O     0.226000000    -5.032000000    -2.327000000
H     1.072000000    -4.733000000    -1.994000000
H     0.130000000    -5.918000000    -1.977000000
O     5.869000000    -1.665000000     2.065000000
H     5.988000000    -0.729000000     1.901000000
H     5.530000000    -2.011000000     1.240000000
O    -5.718000000    -1.129000000    -1.479000000
H    -6.563000000    -0.711000000    -1.642000000
H    -5.296000000    -1.159000000    -2.338000000
O    -2.795000000     6.395000000     4.328000000
H    -2.557000000     5.744000000     4.987000000
H    -3.538000000     6.863000000     4.710000000
O    -1.354000000    -1.417000000     4.687000000
H    -1.666000000    -0.747000000     4.079000000
H    -1.844000000    -1.257000000     5.493000000
O    -1.217000000    -4.045000000     0.638000000
H    -1.755000000    -3.436000000     1.143000000
H    -1.624000000    -4.063000000    -0.228000000
O    -7.281000000     0.617000000     0.911000000
H    -7.681000000     0.492000000     1.771000000
H    -6.339000000     0.583000000     1.078000000
O    -3.262000000     0.813000000    -3.447000000
H    -4.025000000     1.299000000    -3.759000000
H    -3.354000000    -0.056000000    -3.839000000
O    -4.438000000     0.869000000     7.002000000
H    -4.965000000     1.298000000     7.676000000
H    -3.625000000     0.632000000     7.449000000
O     2.648000000    -4.106000000    -5.231000000
H     3.506000000    -3.972000000    -5.633000000
H     2.801000000    -4.762000000    -4.551000000
O    -4.814000000    -1.297000000     3.064000000
H    -4.359000000    -0.456000000     3.021000000
H    -4.559000000    -1.749000000     2.260000000
O     4.390000000    -4.480000000    -0.710000000
H     4.044000000    -3.820000000    -1.310000000
H     3.743000000    -4.526000000    -0.006000000
O     0.806000000     3.128000000    -2.396000000
H    -0.071000000     2.839000000    -2.143000000
H     1.235000000     2.336000000    -2.719000000
O    -3.155000000    -1.549000000    -4.816000000
H    -2.580000000    -1.912000000    -4.143000000
H    -3.643000000    -2.303000000    -5.147000000
O     1.787000000    -3.909000000     3.761000000
H     1.646000000    -3.165000000     3.176000000
H     1.985000000    -3.513000000     4.609000000
O     0.339000000     3.179000000     5.333000000
H    -0.328000000     3.730000000     5.743000000
H    -0.029000000     2.951000000     4.480000000
O    -2.018000000     4.564000000     6.116000000
H    -2.104000000     4.562000000     7.069000000
H    -2.672000000     3.933000000     5.815000000
O     4.465000000     0.132000000    -2.629000000
H     4.333000000     0.972000000    -2.189000000
H     5.014000000    -0.370000000    -2.027000000
O     0.486000000     0.986000000     7.832000000
H     1.326000000     0.544000000     7.705000000
H     0.391000000     1.545000000     7.061000000
O    -2.957000000    -3.652000000    -1.554000000
H    -2.621000000    -3.101000000    -2.261000000
H    -3.408000000    -4.368000000    -2.002000000
O    -4.337000000     1.660000000     1.539000000
H    -3.514000000     1.491000000     1.999000000
H    -4.777000000     2.323000000     2.072000000
O     3.808000000     5.652000000     2.416000000
H     2.969000000     5.321000000     2.735000000
H     3.700000000     5.704000000     1.466000000
O    -0.245000000    -5.406000000    -5.782000000
H     0.618000000    -5.820000000    -5.779000000
H    -0.397000000    -5.164000000    -4.869000000
O     4.378000000    -1.803000000    -6.162000000
H     4.951000000    -2.003000000    -5.422000000
H     4.883000000    -2.059000000    -6.933000000
O    -2.234000000     4.573000000    -0.356000000
H    -2.078000000     3.699000000    -0.714000000
H    -1.834000000     4.551000000     0.514000000
O     2.882000000     4.103000000     5.510000000
H     2.682000000     4.924000000     5.960000000
H     2.025000000     3.722000000     5.315000000
O    -4.320000000    -2.494000000     0.660000000
H    -4.801000000    -1.979000000     0.012000000
H    -3.717000000    -3.028000000     0.142000000
O     4.166000000     2.543000000    -1.342000000
H     4.381000000     3.294000000    -1.896000000
H     3.903000000     2.929000000    -0.507000000
O     1.390000000     0.379000000     4.319000000
H     0.765000000    -0.331000000     4.463000000
H     0.845000000     1.144000000     4.133000000
O     2.717000000     0.593000000    -6.564000000
H     3.056000000    -0.302000000    -6.569000000
H     2.566000000     0.798000000    -7.486000000
O     2.500000000     4.430000000    -4.583000000
H     2.229000000     3.820000000    -3.897000000
H     3.364000000     4.121000000    -4.852000000
O     5.861000000    -1.975000000    -0.583000000
H     5.157000000    -2.279000000    -1.154000000
H     6.616000000    -2.511000000    -0.827000000
O     1.051000000    -1.818000000    -5.088000000
H     1.563000000    -2.600000000    -5.295000000
H     0.567000000    -1.629000000    -5.892000000
O     3.687000000    -5.866000000    -3.228000000
H     4.509000000    -6.129000000    -3.643000000
H     3.873000000    -5.896000000    -2.289000000
O     1.571000000     4.545000000    -0.161000000
H     2.202000000     5.191000000    -0.480000000
H     1.402000000     3.982000000    -0.917000000
O     3.930000000     1.387000000     3.941000000
H     3.152000000     0.831000000     3.982000000
H     3.586000000     2.269000000     3.799000000
O     1.542000000     4.339000000     2.437000000
H     1.463000000     4.484000000     1.494000000
H     0.744000000     3.867000000     2.675000000
O    -0.573000000     1.367000000    -5.167000000
H    -1.282000000     1.553000000    -4.552000000
H     0.017000000     0.788000000    -4.684000000
O     0.350000000     6.801000000     1.853000000
H     0.305000000     6.066000000     2.464000000
H    -0.022000000     6.460000000     1.040000000
