158
-3049.44169
C    -0.746000000    -0.679000000     1.106000000
H    -1.219000000    -1.330000000     1.837000000
C    -0.930000000    -0.904000000    -0.253000000
H    -1.681000000    -1.654000000    -0.484000000
C    -0.195000000    -0.256000000    -1.173000000
H    -0.421000000    -0.424000000    -2.282000000
C     0.696000000     0.796000000    -0.843000000
H     1.191000000     1.469000000    -1.539000000
C     0.876000000     0.992000000     0.588000000
H     1.602000000     1.706000000     0.968000000
C     0.184000000     0.240000000     1.531000000
C     0.415000000     0.640000000     2.974000000
O     0.098000000    -0.156000000     3.839000000
O     1.089000000     1.582000000     3.259000000
O     2.909000000     0.019000000     4.680000000
H     3.374000000     0.649000000     5.231000000
H     2.122000000     0.483000000     4.398000000
O    -1.422000000     0.226000000    -4.794000000
H    -1.563000000    -0.711000000    -4.656000000
H    -2.186000000     0.643000000    -4.396000000
O     0.504000000     0.523000000     8.510000000
H     1.345000000     0.937000000     8.316000000
H     0.351000000    -0.065000000     7.770000000
O     2.482000000     6.176000000     3.573000000
H     2.963000000     5.555000000     3.027000000
H     1.676000000     5.717000000     3.806000000
O    -4.119000000     0.189000000    -3.808000000
H    -4.896000000    -0.280000000    -3.504000000
H    -4.277000000     0.334000000    -4.741000000
O    -1.722000000     3.340000000     1.237000000
H    -1.276000000     3.008000000     0.458000000
H    -2.353000000     3.976000000     0.899000000
O     0.867000000     1.954000000    -5.287000000
H     1.624000000     1.523000000    -4.890000000
H     0.166000000     1.304000000    -5.234000000
O    -3.408000000     0.530000000     1.037000000
H    -3.613000000     1.465000000     1.045000000
H    -2.489000000     0.484000000     1.302000000
O    -2.166000000     2.213000000    -6.764000000
H    -1.426000000     1.607000000    -6.747000000
H    -2.716000000     1.899000000    -7.481000000
O    -4.958000000    -0.704000000    -0.762000000
H    -4.703000000    -1.625000000    -0.815000000
H    -4.290000000    -0.301000000    -0.207000000
O     0.597000000    -1.081000000     6.283000000
H     0.671000000    -0.760000000     5.384000000
H     0.482000000    -2.026000000     6.192000000
O     2.936000000     3.882000000    -0.342000000
H     3.066000000     3.059000000    -0.813000000
H     3.215000000     3.691000000     0.554000000
O    -2.961000000    -6.126000000    -1.753000000
H    -3.791000000    -5.649000000    -1.718000000
H    -2.361000000    -5.601000000    -1.223000000
O    -4.433000000     2.686000000    -1.898000000
H    -4.486000000     1.910000000    -2.457000000
H    -4.996000000     2.482000000    -1.151000000
O    -2.449000000    -1.778000000     3.795000000
H    -1.708000000    -1.263000000     4.113000000
H    -3.200000000    -1.188000000     3.866000000
O     5.330000000    -1.874000000     0.881000000
H     5.777000000    -2.525000000     0.340000000
H     4.493000000    -1.730000000     0.440000000
O     3.820000000    -2.690000000     3.348000000
H     3.467000000    -1.875000000     3.704000000
H     4.307000000    -2.421000000     2.569000000
O    -1.308000000    -2.552000000    -5.017000000
H    -1.886000000    -2.820000000    -4.303000000
H    -1.538000000    -3.132000000    -5.743000000
O     3.004000000     0.075000000    -3.959000000
H     3.434000000    -0.296000000    -4.730000000
H     2.176000000    -0.402000000    -3.894000000
O    -1.065000000    -3.892000000     3.230000000
H    -1.789000000    -3.275000000     3.340000000
H    -0.282000000    -3.342000000     3.218000000
O    -1.957000000     5.845000000     3.337000000
H    -1.739000000     6.399000000     2.588000000
H    -1.112000000     5.531000000     3.657000000
O    -2.636000000     4.467000000    -3.081000000
H    -3.067000000     5.255000000    -2.749000000
H    -3.052000000     3.748000000    -2.607000000
O    -2.686000000     2.616000000     3.703000000
H    -2.432000000     3.076000000     4.503000000
H    -2.193000000     3.053000000     3.009000000
O     0.004000000     4.699000000    -3.669000000
H     0.459000000     3.888000000    -3.900000000
H    -0.923000000     4.495000000    -3.790000000
O    -0.633000000     2.449000000     5.551000000
H    -0.501000000     1.671000000     6.094000000
H     0.034000000     2.380000000     4.868000000
O    -4.206000000     0.527000000     3.973000000
H    -4.495000000     0.808000000     4.841000000
H    -3.533000000     1.162000000     3.728000000
O    -1.035000000    -5.488000000     0.333000000
H    -0.803000000    -4.905000000     1.055000000
H    -0.358000000    -5.336000000    -0.325000000
O     1.493000000    -4.754000000    -4.260000000
H     2.046000000    -5.332000000    -3.734000000
H     0.965000000    -5.348000000    -4.793000000
O    -5.348000000    -2.983000000    -4.998000000
H    -4.950000000    -3.796000000    -5.308000000
H    -4.656000000    -2.557000000    -4.491000000
O     0.569000000     5.013000000    -0.944000000
H     1.324000000     4.467000000    -0.724000000
H     0.384000000     4.807000000    -1.861000000
O    -6.111000000     0.256000000     2.079000000
H    -5.452000000     0.263000000     2.773000000
H    -5.640000000    -0.055000000     1.306000000
O     3.209000000    -1.449000000     7.660000000
H     2.626000000    -1.285000000     6.919000000
H     4.027000000    -1.010000000     7.424000000
O    -4.247000000     3.679000000    -5.335000000
H    -4.219000000     4.118000000    -4.485000000
H    -3.414000000     3.211000000    -5.392000000
O    -4.337000000    -3.200000000    -0.498000000
H    -5.057000000    -3.749000000    -0.810000000
H    -4.346000000    -3.312000000     0.453000000
O     0.597000000    -3.677000000     6.028000000
H    -0.260000000    -4.065000000     6.206000000
H     0.847000000    -4.030000000     5.174000000
O    -0.775000000    -0.215000000    -7.459000000
H    -0.884000000    -1.015000000    -7.972000000
H    -1.176000000    -0.415000000    -6.614000000
O     2.799000000    -1.335000000    -0.943000000
H     2.864000000    -1.871000000    -1.734000000
H     2.204000000    -0.625000000    -1.182000000
O     1.478000000    -3.621000000     0.805000000
H     2.082000000    -3.888000000     0.111000000
H     1.297000000    -2.699000000     0.623000000
O     0.178000000     4.256000000     2.936000000
H     0.795000000     3.525000000     2.959000000
H    -0.468000000     4.004000000     2.276000000
O     0.120000000    -3.491000000    -1.865000000
H     0.287000000    -2.550000000    -1.816000000
H     0.762000000    -3.815000000    -2.497000000
O    -2.928000000    -3.401000000    -2.920000000
H    -2.127000000    -3.854000000    -2.654000000
H    -3.555000000    -3.593000000    -2.222000000
O     4.029000000     1.846000000    -1.548000000
H     4.857000000     2.252000000    -1.807000000
H     3.729000000     1.391000000    -2.335000000
O     1.900000000    -4.670000000     3.212000000
H     2.656000000    -4.120000000     3.416000000
H     1.558000000    -4.313000000     2.392000000
O     4.635000000     3.747000000     5.753000000
H     4.187000000     4.582000000     5.892000000
H     4.226000000     3.149000000     6.379000000
O     3.359000000     3.007000000     2.762000000
H     2.545000000     2.508000000     2.818000000
H     3.901000000     2.663000000     3.473000000
O     1.230000000    -2.017000000    -4.483000000
H     0.388000000    -1.854000000    -4.909000000
H     1.392000000    -2.950000000    -4.621000000
O    -5.005000000    -3.328000000     2.003000000
H    -4.409000000    -2.936000000     2.642000000
H    -5.483000000    -3.993000000     2.498000000
O    -1.293000000     6.230000000     0.319000000
H    -1.206000000     7.068000000    -0.134000000
H    -0.551000000     5.711000000     0.008000000
