158
-3047.75322
C    -1.251000000    -0.410000000     0.686000000
H    -2.171000000    -0.800000000     1.113000000
C    -0.850000000    -0.793000000    -0.623000000
H    -1.428000000    -1.525000000    -1.182000000
C     0.342000000    -0.276000000    -1.152000000
H     0.669000000    -0.526000000    -2.087000000
C     1.184000000     0.501000000    -0.350000000
H     2.100000000     0.904000000    -0.776000000
C     0.761000000     0.885000000     0.927000000
H     1.440000000     1.443000000     1.567000000
C    -0.464000000     0.444000000     1.414000000
C    -0.870000000     0.585000000     2.832000000
O    -2.008000000     0.783000000     3.135000000
O     0.040000000     0.895000000     3.570000000
O     2.111000000    -0.598000000     3.759000000
H     1.360000000    -0.025000000     3.913000000
H     2.866000000    -0.089000000     4.055000000
O    -1.135000000     3.216000000    -2.130000000
H    -0.347000000     3.028000000    -2.640000000
H    -1.009000000     2.738000000    -1.310000000
O     0.607000000     3.930000000     7.294000000
H     0.242000000     4.660000000     6.793000000
H     0.044000000     3.187000000     7.079000000
O    -1.168000000    -4.361000000    -1.292000000
H    -0.573000000    -3.889000000    -1.875000000
H    -0.643000000    -5.085000000    -0.950000000
O    -1.201000000     4.705000000     2.300000000
H    -0.470000000     4.088000000     2.339000000
H    -0.802000000     5.531000000     2.026000000
O     2.346000000     1.282000000    -6.541000000
H     1.616000000     0.821000000    -6.126000000
H     2.271000000     1.061000000    -7.470000000
O    -1.381000000    -0.397000000    -3.860000000
H    -1.142000000    -0.397000000    -4.787000000
H    -0.723000000     0.159000000    -3.443000000
O     3.420000000    -2.611000000    -0.298000000
H     2.551000000    -2.713000000     0.089000000
H     3.250000000    -2.408000000    -1.218000000
O    -2.694000000     2.563000000     1.230000000
H    -2.294000000     3.367000000     1.562000000
H    -2.556000000     1.921000000     1.927000000
O     3.717000000    -0.769000000    -2.443000000
H     4.298000000    -0.070000000    -2.744000000
H     3.234000000    -1.032000000    -3.226000000
O     0.715000000     0.234000000     7.742000000
H     0.315000000     0.792000000     7.075000000
H     0.110000000     0.274000000     8.483000000
O     2.233000000     4.627000000     1.601000000
H     3.016000000     4.509000000     1.064000000
H     2.394000000     4.093000000     2.379000000
O    -5.155000000    -1.770000000    -1.748000000
H    -5.946000000    -1.241000000    -1.848000000
H    -4.621000000    -1.549000000    -2.510000000
O    -4.007000000     5.010000000     2.896000000
H    -4.485000000     5.237000000     2.099000000
H    -3.086000000     5.031000000     2.638000000
O     1.328000000     4.758000000    -2.854000000
H     0.906000000     5.198000000    -2.116000000
H     0.698000000     4.836000000    -3.571000000
O    -2.706000000    -0.378000000     5.409000000
H    -2.546000000     0.277000000     4.730000000
H    -3.580000000    -0.172000000     5.740000000
O     1.220000000    -2.462000000     1.094000000
H     1.449000000    -2.116000000     1.957000000
H     0.686000000    -1.775000000     0.695000000
O    -3.427000000     1.229000000    -2.952000000
H    -2.960000000     0.549000000    -3.438000000
H    -2.745000000     1.847000000    -2.689000000
O    -4.927000000     1.359000000    -0.164000000
H    -4.237000000     1.699000000     0.407000000
H    -4.459000000     0.857000000    -0.832000000
O     0.685000000     1.655000000    -3.506000000
H     1.058000000     1.058000000    -2.859000000
H     1.409000000     2.236000000    -3.742000000
O    -5.371000000     2.567000000     3.397000000
H    -4.862000000     3.369000000     3.272000000
H    -6.214000000     2.869000000     3.735000000
O    -0.741000000     2.055000000     5.847000000
H    -1.664000000     2.023000000     6.097000000
H    -0.675000000     1.464000000     5.098000000
O    -3.422000000     2.508000000     5.832000000
H    -3.931000000     3.084000000     6.403000000
H    -3.959000000     2.416000000     5.045000000
O     6.432000000     1.192000000    -3.112000000
H     6.570000000     2.025000000    -3.563000000
H     6.165000000     1.439000000    -2.227000000
O    -1.878000000    -2.620000000     7.213000000
H    -2.090000000    -1.998000000     6.517000000
H    -1.783000000    -2.079000000     7.997000000
O    -2.698000000    -4.344000000     0.792000000
H    -1.979000000    -4.855000000     1.163000000
H    -2.461000000    -4.228000000    -0.128000000
O    -4.002000000    -1.739000000    -4.220000000
H    -4.361000000    -2.585000000    -4.487000000
H    -3.056000000    -1.837000000    -4.321000000
O    -4.719000000    -0.170000000     3.039000000
H    -3.869000000    -0.024000000     2.622000000
H    -5.001000000     0.701000000     3.317000000
O     4.621000000     3.652000000     1.162000000
H     4.780000000     2.793000000     1.552000000
H     4.586000000     3.485000000     0.220000000
O     3.408000000    -0.529000000     6.590000000
H     2.505000000    -0.560000000     6.905000000
H     3.940000000    -0.613000000     7.381000000
O     4.284000000     1.180000000     4.715000000
H     4.130000000     2.039000000     5.109000000
H     3.972000000     0.557000000     5.371000000
O    -5.619000000    -3.677000000     0.223000000
H    -5.468000000    -2.904000000    -0.321000000
H    -4.796000000    -3.800000000     0.697000000
O     0.755000000    -3.256000000     4.740000000
H     1.275000000    -2.551000000     4.355000000
H    -0.153000000    -2.995000000     4.586000000
O    -5.881000000    -2.009000000     4.598000000
H    -5.349000000    -1.394000000     4.093000000
H    -6.179000000    -1.503000000     5.354000000
O     4.350000000    -1.437000000     1.930000000
H     3.577000000    -1.236000000     2.458000000
H     3.996000000    -1.733000000     1.091000000
O     0.280000000    -5.007000000     1.177000000
H     0.408000000    -5.076000000     2.123000000
H     0.831000000    -4.270000000     0.913000000
O    -1.547000000     5.422000000     5.694000000
H    -1.824000000     4.522000000     5.518000000
H    -1.125000000     5.705000000     4.882000000
O     1.793000000    -1.735000000    -4.792000000
H     2.519000000    -1.988000000    -5.361000000
H     1.121000000    -1.410000000    -5.391000000
O     6.310000000    -2.172000000    -2.276000000
H     5.392000000    -1.902000000    -2.256000000
H     6.569000000    -2.078000000    -3.193000000
O     0.353000000    -3.807000000    -3.731000000
H     0.817000000    -2.972000000    -3.668000000
H     0.961000000    -4.385000000    -4.193000000
O    -7.028000000     0.254000000     1.138000000
H    -6.607000000    -0.272000000     1.819000000
H    -6.321000000     0.463000000     0.527000000
O    -1.798000000    -2.611000000    -5.769000000
H    -1.291000000    -3.181000000    -5.190000000
H    -2.155000000    -3.201000000    -6.433000000
O     4.068000000     3.746000000    -1.457000000
H     4.767000000     4.246000000    -1.878000000
H     3.265000000     4.208000000    -1.698000000
O    -2.015000000    -2.634000000     3.773000000
H    -2.344000000    -1.861000000     4.231000000
H    -2.531000000    -2.673000000     2.967000000
O     4.740000000     1.254000000     2.058000000
H     4.728000000     0.308000000     1.916000000
H     4.670000000     1.355000000     3.007000000
O     1.473000000     3.505000000     4.226000000
H     0.890000000     2.747000000     4.255000000
H     2.130000000     3.328000000     4.899000000
O    -0.054000000    -0.664000000    -6.349000000
H    -0.269000000    -0.112000000    -7.100000000
H    -0.635000000    -1.420000000    -6.433000000
O     3.256000000     2.138000000    -4.059000000
H     3.985000000     2.748000000    -4.168000000
H     2.904000000     2.026000000    -4.942000000
