158
-3035.70989
C    -1.403000000     0.449000000     0.297000000
H    -2.477000000     0.552000000     0.425000000
C    -0.932000000    -0.140000000    -0.847000000
H    -1.635000000    -0.249000000    -1.669000000
C     0.393000000    -0.544000000    -0.994000000
H     0.658000000    -1.026000000    -1.910000000
C     1.276000000    -0.347000000     0.041000000
H     2.331000000    -0.594000000    -0.043000000
C     0.852000000     0.457000000     1.144000000
H     1.585000000     0.705000000     1.908000000
C    -0.472000000     0.691000000     1.313000000
C    -0.929000000     1.311000000     2.593000000
O    -2.074000000     1.194000000     2.880000000
O    -0.156000000     2.043000000     3.264000000
O     6.167000000    -2.195000000     1.183000000
H     5.573000000    -2.746000000     1.693000000
H     6.953000000    -2.730000000     1.071000000
O    -4.413000000     1.735000000    -2.799000000
H    -4.509000000     0.783000000    -2.825000000
H    -5.090000000     2.027000000    -2.188000000
O    -5.417000000     4.110000000     4.046000000
H    -5.556000000     5.048000000     3.914000000
H    -5.679000000     3.955000000     4.954000000
O     1.757000000     3.445000000    -6.115000000
H     1.448000000     3.855000000    -6.923000000
H     1.052000000     2.847000000    -5.865000000
O    -0.309000000    -2.846000000     0.957000000
H     0.015000000    -2.031000000     0.573000000
H    -1.070000000    -2.581000000     1.473000000
O     2.915000000    -2.542000000     2.870000000
H     3.029000000    -3.432000000     2.536000000
H     3.798000000    -2.258000000     3.103000000
O     1.950000000    -5.629000000    -3.477000000
H     2.290000000    -5.110000000    -2.748000000
H     2.521000000    -5.410000000    -4.214000000
O    -0.078000000     1.454000000    -5.061000000
H    -0.360000000     0.539000000    -5.050000000
H     0.249000000     1.614000000    -4.175000000
O     6.187000000     0.159000000    -0.313000000
H     5.402000000     0.069000000    -0.852000000
H     6.267000000    -0.683000000     0.136000000
O    -2.834000000     3.905000000     3.076000000
H    -3.577000000     3.655000000     3.626000000
H    -2.108000000     3.370000000     3.397000000
O    -2.201000000    -3.231000000    -1.798000000
H    -1.324000000    -2.904000000    -1.998000000
H    -2.508000000    -3.612000000    -2.620000000
O    -4.563000000    -0.200000000    -5.421000000
H    -4.550000000    -0.477000000    -4.505000000
H    -3.869000000     0.456000000    -5.483000000
O    -0.237000000    -4.628000000    -6.188000000
H     0.659000000    -4.293000000    -6.227000000
H    -0.148000000    -5.569000000    -6.335000000
O    -4.130000000    -2.043000000    -0.026000000
H    -4.028000000    -2.346000000     0.876000000
H    -3.463000000    -2.524000000    -0.517000000
O     3.134000000    -2.649000000    -6.511000000
H     3.090000000    -3.583000000    -6.307000000
H     3.598000000    -2.263000000    -5.768000000
O     4.555000000    -3.522000000    -0.883000000
H     4.219000000    -4.337000000    -0.510000000
H     5.070000000    -3.130000000    -0.178000000
O    -2.464000000    -3.129000000    -6.272000000
H    -2.622000000    -3.630000000    -7.071000000
H    -1.612000000    -3.434000000    -5.962000000
O    -2.540000000    -1.742000000     3.821000000
H    -2.292000000    -0.820000000     3.745000000
H    -2.624000000    -1.890000000     4.763000000
O    -4.783000000     0.556000000     2.617000000
H    -4.541000000     0.711000000     3.530000000
H    -3.950000000     0.554000000     2.146000000
O     3.097000000    -2.740000000    -2.915000000
H     3.598000000    -2.095000000    -3.414000000
H     3.633000000    -2.912000000    -2.140000000
O    -6.078000000    -0.328000000    -0.836000000
H    -6.574000000    -0.061000000    -0.063000000
H    -5.399000000    -0.910000000    -0.496000000
O    -3.255000000     2.230000000    -5.228000000
H    -3.559000000     2.085000000    -4.333000000
H    -2.368000000     2.577000000    -5.127000000
O     2.294000000     2.277000000     4.292000000
H     2.149000000     1.441000000     4.735000000
H     1.518000000     2.396000000     3.745000000
O     2.348000000     4.749000000     5.617000000
H     2.400000000     3.935000000     5.116000000
H     1.798000000     5.324000000     5.084000000
O    -0.790000000    -1.099000000    -4.951000000
H    -1.565000000    -1.354000000    -5.451000000
H    -0.615000000    -1.848000000    -4.381000000
O     0.260000000    -3.128000000    -3.352000000
H     1.149000000    -2.782000000    -3.273000000
H     0.381000000    -4.057000000    -3.546000000
O     1.485000000    -1.484000000     4.692000000
H     2.106000000    -1.814000000     4.042000000
H     0.740000000    -2.082000000     4.637000000
O    -1.089000000     4.846000000    -0.832000000
H    -1.901000000     5.348000000    -0.752000000
H    -0.799000000     4.715000000     0.071000000
O    -3.508000000     1.490000000     5.103000000
H    -3.035000000     1.342000000     4.284000000
H    -2.981000000     2.138000000     5.571000000
O    -1.571000000    -5.506000000    -0.139000000
H    -1.858000000    -5.398000000     0.768000000
H    -1.772000000    -4.668000000    -0.555000000
O     1.134000000    -1.047000000    -7.121000000
H     1.762000000    -1.742000000    -6.925000000
H     0.564000000    -1.016000000    -6.353000000
O    -3.451000000     3.563000000     0.433000000
H    -2.663000000     3.045000000     0.599000000
H    -3.737000000     3.849000000     1.301000000
O    -4.308000000    -1.302000000    -2.949000000
H    -3.875000000    -2.150000000    -2.856000000
H    -4.878000000    -1.238000000    -2.183000000
O     4.713000000     1.664000000    -4.188000000
H     4.447000000     2.393000000    -4.748000000
H     5.370000000     2.040000000    -3.601000000
O     0.286000000     1.154000000     7.194000000
H    -0.259000000     1.849000000     6.827000000
H     1.086000000     1.599000000     7.475000000
O    -5.619000000     4.623000000    -0.749000000
H    -5.936000000     4.099000000    -1.485000000
H    -4.814000000     4.185000000    -0.472000000
O    -1.143000000     3.023000000     5.911000000
H    -1.351000000     3.956000000     5.860000000
H    -0.717000000     2.827000000     5.077000000
O     1.199000000    -4.895000000    -0.005000000
H     0.420000000    -5.447000000     0.051000000
H     0.930000000    -4.060000000     0.378000000
O     3.212000000     2.594000000    -0.756000000
H     3.906000000     2.648000000    -0.099000000
H     3.443000000     1.832000000    -1.287000000
O     1.834000000     1.640000000    -2.966000000
H     2.175000000     2.526000000    -3.085000000
H     1.430000000     1.653000000    -2.099000000
O     4.749000000    -1.005000000    -4.790000000
H     5.588000000    -0.990000000    -5.250000000
H     4.521000000    -0.082000000    -4.678000000
O    -5.436000000    -1.906000000     3.970000000
H    -4.614000000    -2.396000000     3.937000000
H    -5.299000000    -1.166000000     3.378000000
O     2.270000000     5.288000000    -0.111000000
H     1.680000000     5.011000000     0.590000000
H     2.608000000     4.470000000    -0.476000000
O     4.276000000     2.333000000     2.238000000
H     5.028000000     2.179000000     2.810000000
H     3.516000000     2.122000000     2.780000000
O     0.620000000     4.466000000     1.994000000
H     0.693000000     5.157000000     2.653000000
H     0.475000000     3.667000000     2.500000000
O    -2.253000000     3.374000000    -2.775000000
H    -1.871000000     3.760000000    -1.987000000
H    -3.017000000     2.892000000    -2.460000000
O    -7.296000000     0.803000000     1.409000000
H    -6.366000000     0.811000000     1.635000000
H    -7.638000000     1.619000000     1.773000000
O     4.065000000     0.244000000    -1.896000000
H     3.904000000     0.681000000    -2.732000000
H     3.308000000    -0.328000000    -1.775000000
