158
-3056.63934
C    -1.376000000    -0.365000000     0.504000000
H    -2.339000000    -0.763000000     0.815000000
C    -0.956000000    -0.502000000    -0.790000000
H    -1.642000000    -0.933000000    -1.514000000
C     0.365000000    -0.096000000    -1.119000000
H     0.648000000    -0.108000000    -2.205000000
C     1.267000000     0.320000000    -0.140000000
H     2.267000000     0.683000000    -0.366000000
C     0.839000000     0.411000000     1.158000000
H     1.498000000     0.806000000     1.927000000
C    -0.448000000     0.119000000     1.492000000
C    -0.933000000     0.334000000     2.877000000
O    -2.112000000    -0.014000000     3.076000000
O    -0.337000000     1.074000000     3.662000000
O    -3.838000000    -1.680000000     7.813000000
H    -3.862000000    -1.327000000     6.923000000
H    -4.510000000    -2.362000000     7.818000000
O    -3.161000000     0.780000000    -2.740000000
H    -3.411000000     1.278000000    -1.962000000
H    -3.064000000    -0.120000000    -2.427000000
O     5.670000000    -0.987000000    -4.991000000
H     6.044000000    -0.198000000    -5.383000000
H     5.031000000    -0.660000000    -4.358000000
O     4.470000000     0.529000000    -2.453000000
H     4.244000000     1.335000000    -1.988000000
H     5.427000000     0.518000000    -2.461000000
O    -1.075000000     2.420000000    -7.297000000
H    -1.107000000     2.249000000    -6.356000000
H    -0.391000000     1.836000000    -7.624000000
O     2.166000000     4.569000000    -2.298000000
H     2.697000000     3.797000000    -2.104000000
H     1.273000000     4.232000000    -2.375000000
O     1.768000000    -2.830000000     0.801000000
H     1.654000000    -3.411000000     0.049000000
H     1.461000000    -1.977000000     0.493000000
O     5.965000000     1.595000000    -5.443000000
H     5.171000000     2.063000000    -5.181000000
H     6.675000000     2.064000000    -5.004000000
O    -0.721000000    -1.040000000    -6.126000000
H    -1.163000000    -1.823000000    -6.458000000
H    -0.127000000    -1.369000000    -5.452000000
O    -2.883000000     4.179000000     3.366000000
H    -3.311000000     3.430000000     2.951000000
H    -3.602000000     4.687000000     3.743000000
O     4.117000000     2.800000000    -1.192000000
H     3.782000000     2.791000000    -0.295000000
H     4.502000000     3.671000000    -1.294000000
O    -3.672000000     1.914000000     2.064000000
H    -4.498000000     2.114000000     2.503000000
H    -3.291000000     1.205000000     2.581000000
O    -4.193000000    -1.830000000    -1.660000000
H    -4.419000000    -2.472000000    -0.988000000
H    -3.482000000    -2.240000000    -2.153000000
O    -3.909000000     0.627000000    -6.312000000
H    -4.562000000     0.231000000    -5.735000000
H    -3.259000000     1.001000000    -5.717000000
O    -7.336000000     1.136000000     0.238000000
H    -6.634000000     0.512000000     0.424000000
H    -6.936000000     1.995000000     0.376000000
O     3.403000000     3.525000000    -4.943000000
H     3.704000000     3.925000000    -5.759000000
H     3.536000000     4.203000000    -4.280000000
O    -3.861000000    -2.038000000     2.687000000
H    -3.169000000    -1.438000000     2.964000000
H    -3.967000000    -2.639000000     3.426000000
O    -1.494000000    -4.376000000     0.830000000
H    -0.918000000    -4.084000000     0.124000000
H    -2.355000000    -4.030000000     0.595000000
O    -2.067000000    -2.947000000    -3.168000000
H    -2.507000000    -3.085000000    -4.007000000
H    -1.150000000    -2.798000000    -3.401000000
O    -5.462000000    -0.550000000     0.597000000
H    -4.954000000    -0.920000000    -0.125000000
H    -4.958000000    -0.769000000     1.381000000
O     2.854000000    -2.076000000    -2.558000000
H     3.562000000    -2.712000000    -2.660000000
H     3.300000000    -1.236000000    -2.449000000
O    -1.299000000     1.509000000    -4.535000000
H    -1.891000000     0.991000000    -3.989000000
H    -0.570000000     0.918000000    -4.725000000
O     2.203000000     1.143000000     4.298000000
H     2.215000000     1.694000000     5.081000000
H     1.278000000     1.093000000     4.055000000
O    -1.694000000     4.157000000     5.821000000
H    -1.764000000     3.996000000     4.880000000
H    -1.649000000     5.110000000     5.899000000
O    -5.193000000     2.355000000     6.120000000
H    -4.337000000     2.673000000     6.406000000
H    -5.028000000     1.462000000     5.817000000
O     2.080000000     1.228000000    -4.245000000
H     2.703000000     1.899000000    -4.524000000
H     2.369000000     0.984000000    -3.366000000
O     1.769000000     2.575000000     6.769000000
H     1.050000000     2.856000000     7.335000000
H     2.513000000     3.111000000     7.042000000
O     0.465000000    -2.990000000    -4.311000000
H     0.783000000    -3.739000000    -4.815000000
H     1.248000000    -2.635000000    -3.889000000
O     3.375000000    -3.975000000     2.776000000
H     3.448000000    -4.868000000     2.439000000
H     2.953000000    -3.486000000     2.069000000
O    -3.324000000    -4.038000000     5.004000000
H    -3.338000000    -4.769000000     5.621000000
H    -2.397000000    -3.813000000     4.921000000
O    -3.365000000     0.144000000     5.563000000
H    -2.941000000    -0.207000000     4.780000000
H    -2.640000000     0.373000000     6.145000000
O     0.152000000    -4.258000000    -1.650000000
H    -0.271000000    -3.678000000    -2.283000000
H     0.085000000    -5.129000000    -2.041000000
O    -4.104000000    -5.141000000    -2.170000000
H    -3.160000000    -5.287000000    -2.236000000
H    -4.203000000    -4.550000000    -1.423000000
O    -4.026000000     2.294000000    -0.607000000
H    -4.717000000     2.946000000    -0.494000000
H    -3.662000000     2.176000000     0.270000000
O    -4.083000000    -3.660000000     0.435000000
H    -4.331000000    -3.044000000     1.124000000
H    -4.450000000    -4.497000000     0.718000000
O     4.865000000    -1.896000000     0.375000000
H     4.914000000    -2.847000000     0.472000000
H     3.941000000    -1.721000000     0.196000000
O    -0.139000000    -1.860000000     7.252000000
H    -0.328000000    -0.930000000     7.130000000
H    -0.875000000    -2.310000000     6.837000000
O    -1.001000000     0.978000000     6.249000000
H    -0.466000000     1.749000000     6.435000000
H    -1.020000000     0.924000000     5.293000000
O    -0.581000000    -4.204000000     3.601000000
H    -0.943000000    -4.484000000     2.761000000
H    -0.016000000    -3.463000000     3.383000000
O     5.725000000     1.710000000     2.596000000
H     5.353000000     2.218000000     3.317000000
H     5.595000000     0.797000000     2.853000000
O     0.841000000     0.507000000    -7.725000000
H     0.635000000    -0.233000000    -7.154000000
H     1.460000000     1.035000000    -7.220000000
O    -5.543000000    -0.606000000    -4.476000000
H    -5.442000000    -1.215000000    -3.745000000
H    -5.942000000     0.172000000    -4.087000000
O    -0.365000000     2.978000000     0.111000000
H    -0.051000000     3.249000000     0.973000000
H    -0.113000000     2.057000000     0.043000000
O     2.982000000     3.071000000     1.123000000
H     2.248000000     3.138000000     1.734000000
H     3.758000000     3.047000000     1.682000000
O     4.210000000    -0.670000000     5.256000000
H     4.578000000    -0.098000000     5.931000000
H     3.548000000    -0.132000000     4.822000000
O     0.849000000     3.526000000     3.104000000
H     0.558000000     4.198000000     3.720000000
H     0.374000000     2.738000000     3.366000000
O    -0.538000000     3.898000000    -2.493000000
H    -0.667000000     3.451000000    -1.657000000
H    -0.837000000     3.268000000    -3.150000000
O     6.059000000    -0.995000000     2.654000000
H     5.550000000    -1.259000000     1.888000000
H     5.847000000    -1.649000000     3.320000000
