158
-3023.68041
C    -1.064000000     0.785000000     0.579000000
H    -1.913000000     1.391000000     0.884000000
C    -1.224000000    -0.051000000    -0.479000000
H    -2.239000000    -0.018000000    -0.864000000
C    -0.130000000    -0.769000000    -0.985000000
H    -0.163000000    -1.491000000    -1.842000000
C     1.105000000    -0.648000000    -0.305000000
H     1.924000000    -1.257000000    -0.679000000
C     1.261000000     0.205000000     0.783000000
H     2.177000000     0.157000000     1.366000000
C     0.178000000     0.929000000     1.238000000
C     0.331000000     1.789000000     2.473000000
O    -0.691000000     2.199000000     3.016000000
O     1.345000000     1.837000000     3.112000000
O     3.300000000     0.176000000     4.251000000
H     3.788000000    -0.226000000     3.532000000
H     2.512000000     0.528000000     3.838000000
O     0.553000000     1.204000000    -2.714000000
H     0.330000000     1.032000000    -1.799000000
H     0.114000000     0.508000000    -3.202000000
O    -3.259000000     1.399000000    -4.984000000
H    -3.070000000     2.296000000    -5.259000000
H    -4.175000000     1.421000000    -4.708000000
O    -3.744000000     5.524000000     0.760000000
H    -4.403000000     4.848000000     0.603000000
H    -3.099000000     5.103000000     1.328000000
O     3.323000000    -3.006000000     2.999000000
H     3.643000000    -2.786000000     3.874000000
H     3.552000000    -2.247000000     2.463000000
O    -0.124000000     4.362000000     4.421000000
H    -0.168000000     3.565000000     3.894000000
H     0.169000000     4.065000000     5.282000000
O     5.741000000    -4.115000000    -0.619000000
H     4.812000000    -4.313000000    -0.741000000
H     6.095000000    -4.888000000    -0.180000000
O     2.324000000     5.170000000     3.059000000
H     1.505000000     4.782000000     3.369000000
H     2.714000000     5.562000000     3.840000000
O     6.014000000     2.578000000     0.871000000
H     5.121000000     2.831000000     1.105000000
H     5.909000000     1.998000000     0.117000000
O    -4.828000000     2.859000000     2.877000000
H    -4.292000000     2.900000000     3.669000000
H    -5.454000000     3.576000000     2.974000000
O     1.803000000     2.251000000    -6.979000000
H     1.403000000     1.548000000    -6.466000000
H     2.616000000     1.872000000    -7.312000000
O     3.476000000     0.955000000    -2.882000000
H     2.524000000     0.950000000    -2.785000000
H     3.639000000     1.547000000    -3.616000000
O    -1.894000000     7.088000000     3.288000000
H    -2.133000000     6.321000000     2.767000000
H    -2.598000000     7.169000000     3.931000000
O    -2.142000000    -3.415000000    -3.364000000
H    -1.552000000    -4.169000000    -3.358000000
H    -2.529000000    -3.420000000    -4.240000000
O    -3.340000000     3.456000000     7.128000000
H    -2.671000000     3.045000000     7.676000000
H    -3.313000000     2.964000000     6.307000000
O    -4.915000000     3.131000000     0.084000000
H    -4.163000000     2.824000000    -0.423000000
H    -4.920000000     2.576000000     0.864000000
O    -3.024000000    -2.921000000    -0.794000000
H    -3.882000000    -2.498000000    -0.837000000
H    -2.734000000    -2.967000000    -1.705000000
O    -1.903000000    -6.668000000    -1.228000000
H    -1.453000000    -5.908000000    -1.598000000
H    -1.523000000    -6.770000000    -0.355000000
O    -4.750000000     0.371000000     0.790000000
H    -4.794000000    -0.454000000     0.307000000
H    -4.245000000     0.162000000     1.575000000
O    -3.012000000    -2.835000000    -6.107000000
H    -2.191000000    -2.588000000    -6.533000000
H    -3.389000000    -3.501000000    -6.682000000
O    -1.225000000    -2.493000000     1.326000000
H    -0.833000000    -1.723000000     0.914000000
H    -1.732000000    -2.906000000     0.627000000
O     2.372000000    -3.823000000    -0.840000000
H     1.742000000    -3.381000000    -0.270000000
H     2.577000000    -4.639000000    -0.384000000
O     4.656000000    -0.848000000     1.936000000
H     4.684000000    -0.363000000     1.111000000
H     5.543000000    -1.194000000     2.041000000
O     1.050000000    -1.250000000     6.348000000
H     0.885000000    -1.229000000     5.406000000
H     1.787000000    -0.653000000     6.476000000
O     2.037000000     1.522000000     7.308000000
H     1.569000000     1.897000000     6.562000000
H     2.889000000     1.958000000     7.301000000
O    -0.680000000    -2.418000000    -7.348000000
H    -0.562000000    -2.953000000    -8.133000000
H     0.062000000    -2.649000000    -6.788000000
O     1.405000000     3.533000000    -3.510000000
H     1.419000000     3.706000000    -2.569000000
H     0.991000000     2.674000000    -3.589000000
O     1.554000000    -5.172000000     1.934000000
H     2.030000000    -5.844000000     1.446000000
H     2.235000000    -4.576000000     2.247000000
O    -4.022000000    -0.233000000     5.259000000
H    -3.530000000     0.585000000     5.186000000
H    -4.205000000    -0.484000000     4.353000000
O    -2.399000000     1.792000000     5.217000000
H    -1.744000000     1.646000000     5.901000000
H    -1.892000000     2.077000000     4.457000000
O    -0.440000000    -5.483000000    -3.258000000
H     0.252000000    -4.842000000    -3.091000000
H    -0.321000000    -5.729000000    -4.175000000
O    -1.977000000     4.304000000     2.397000000
H    -1.606000000     3.421000000     2.402000000
H    -1.647000000     4.706000000     3.201000000
O    -1.104000000    -0.505000000    -4.103000000
H    -1.420000000    -1.400000000    -3.982000000
H    -1.828000000    -0.051000000    -4.534000000
O     5.249000000    -1.252000000    -4.237000000
H     4.297000000    -1.272000000    -4.137000000
H     5.582000000    -1.165000000    -3.344000000
O    -3.284000000     2.252000000    -2.101000000
H    -4.023000000     2.135000000    -2.697000000
H    -2.534000000     1.896000000    -2.577000000
O     2.405000000     3.128000000     5.120000000
H     3.361000000     3.091000000     5.090000000
H     2.121000000     2.557000000     4.407000000
O     1.857000000    -3.747000000    -3.383000000
H     2.181000000    -3.610000000    -2.493000000
H     2.316000000    -4.530000000    -3.687000000
O    -0.874000000     1.563000000     7.504000000
H    -0.024000000     1.280000000     7.842000000
H    -1.454000000     1.539000000     8.265000000
O     1.045000000    -0.088000000    -5.869000000
H     0.260000000    -0.298000000    -5.363000000
H     1.554000000    -0.898000000    -5.869000000
O     4.967000000     0.395000000    -0.526000000
H     4.565000000     0.715000000    -1.333000000
H     5.503000000    -0.348000000    -0.804000000
O    -0.151000000    -2.095000000     4.087000000
H     0.332000000    -2.719000000     3.546000000
H    -1.046000000    -2.126000000     3.749000000
O    -4.195000000    -5.256000000    -0.611000000
H    -3.485000000    -5.757000000    -1.011000000
H    -3.833000000    -4.377000000    -0.496000000
O     5.090000000     0.284000000     6.191000000
H     5.557000000     1.073000000     5.915000000
H     4.405000000     0.170000000     5.532000000
O    -1.551000000     4.071000000    -1.118000000
H    -2.136000000     4.450000000    -0.461000000
H    -2.029000000     3.313000000    -1.455000000
O     3.473000000     3.167000000     1.633000000
H     3.025000000     3.774000000     2.223000000
H     2.897000000     2.404000000     1.593000000
O     1.612000000     4.295000000    -0.733000000
H     0.672000000     4.474000000    -0.692000000
H     2.011000000     4.990000000    -0.209000000
O    -5.600000000    -1.994000000    -1.076000000
H    -6.256000000    -1.344000000    -1.327000000
H    -5.936000000    -2.820000000    -1.425000000
O     1.887000000    -2.628000000    -6.009000000
H     1.744000000    -2.980000000    -5.130000000
H     2.631000000    -3.125000000    -6.348000000
