158
-2989.85821
C    -1.304000000     0.638000000    -0.386000000
H    -2.331000000     0.911000000    -0.613000000
C    -0.666000000    -0.427000000    -1.017000000
H    -1.295000000    -0.964000000    -1.723000000
C     0.620000000    -0.862000000    -0.682000000
H     1.100000000    -1.756000000    -1.089000000
C     1.266000000    -0.415000000     0.504000000
H     2.123000000    -0.935000000     0.925000000
C     0.620000000     0.670000000     1.150000000
H     1.136000000     1.028000000     2.038000000
C    -0.619000000     1.221000000     0.728000000
C    -1.265000000     2.358000000     1.565000000
O    -2.338000000     2.815000000     1.330000000
O    -0.734000000     2.857000000     2.550000000
O    -4.202000000     7.322000000     0.719000000
H    -3.980000000     7.541000000     1.623000000
H    -3.630000000     6.585000000     0.504000000
O     0.327000000     1.606000000     4.547000000
H    -0.183000000     1.804000000     5.333000000
H    -0.206000000     1.941000000     3.826000000
O     4.843000000    -1.917000000    -2.034000000
H     4.633000000    -0.987000000    -1.958000000
H     4.530000000    -2.301000000    -1.215000000
O    -1.836000000     2.467000000    -3.409000000
H    -2.237000000     2.283000000    -2.560000000
H    -1.784000000     1.614000000    -3.840000000
O    -6.047000000     4.165000000     2.743000000
H    -6.653000000     3.454000000     2.952000000
H    -5.202000000     3.731000000     2.621000000
O     2.852000000    -1.730000000     3.305000000
H     2.905000000    -1.470000000     4.224000000
H     3.552000000    -1.237000000     2.876000000
O     0.072000000     5.725000000     6.314000000
H    -0.249000000     5.622000000     5.418000000
H     0.426000000     6.614000000     6.340000000
O     4.254000000    -3.163000000     0.409000000
H     3.631000000    -3.737000000    -0.036000000
H     4.443000000    -3.608000000     1.235000000
O     5.461000000     1.225000000     4.257000000
H     5.540000000     0.747000000     3.431000000
H     5.203000000     0.560000000     4.895000000
O     3.400000000     2.874000000     0.638000000
H     3.112000000     3.693000000     0.235000000
H     3.208000000     2.204000000    -0.019000000
O     2.664000000     0.450000000    -5.679000000
H     1.892000000     0.205000000    -5.168000000
H     3.262000000    -0.291000000    -5.578000000
O     1.214000000     2.102000000    -1.317000000
H     0.925000000     1.358000000    -0.789000000
H     0.681000000     2.054000000    -2.111000000
O    -3.697000000     6.845000000     3.421000000
H    -3.245000000     6.046000000     3.693000000
H    -4.383000000     6.968000000     4.078000000
O    -3.405000000    -2.840000000    -3.760000000
H    -3.399000000    -3.751000000    -3.467000000
H    -3.811000000    -2.871000000    -4.627000000
O     3.196000000    -6.132000000     0.690000000
H     3.027000000    -6.731000000    -0.037000000
H     4.150000000    -6.115000000     0.769000000
O    -4.673000000     1.613000000     1.416000000
H    -4.487000000     0.784000000     1.858000000
H    -3.810000000     1.988000000     1.240000000
O    -3.558000000    -2.535000000    -1.014000000
H    -4.041000000    -1.818000000    -1.424000000
H    -3.551000000    -3.228000000    -1.675000000
O    -3.096000000    -6.020000000    -0.202000000
H    -2.643000000    -5.423000000     0.395000000
H    -2.748000000    -5.802000000    -1.067000000
O    -4.497000000    -1.003000000     2.413000000
H    -3.948000000    -1.428000000     1.755000000
H    -5.319000000    -1.492000000     2.392000000
O    -1.331000000    -3.513000000     0.101000000
H    -2.093000000    -3.241000000    -0.410000000
H    -0.998000000    -2.702000000     0.484000000
O     0.810000000    -5.389000000    -0.468000000
H     0.195000000    -4.894000000     0.074000000
H     1.491000000    -5.673000000     0.142000000
O     5.188000000    -0.138000000     1.875000000
H     5.868000000    -0.795000000     1.726000000
H     4.916000000     0.128000000     0.996000000
O     3.974000000     3.408000000     3.263000000
H     4.399000000     2.651000000     3.666000000
H     3.647000000     3.081000000     2.425000000
O     0.438000000    -0.781000000     6.899000000
H     1.131000000    -0.458000000     6.323000000
H     0.904000000    -1.142000000     7.654000000
O    -0.835000000    -3.638000000    -6.254000000
H    -0.877000000    -3.227000000    -5.391000000
H     0.098000000    -3.803000000    -6.396000000
O     0.803000000     2.707000000    -3.934000000
H     0.886000000     1.763000000    -4.069000000
H    -0.140000000     2.867000000    -3.932000000
O     3.016000000    -4.783000000     3.869000000
H     3.266000000    -5.133000000     3.014000000
H     2.780000000    -3.872000000     3.695000000
O    -2.813000000    -1.178000000     4.689000000
H    -2.496000000    -0.279000000     4.604000000
H    -3.393000000    -1.299000000     3.936000000
O    -2.312000000     7.286000000    -1.902000000
H    -1.853000000     7.738000000    -1.195000000
H    -2.529000000     6.428000000    -1.538000000
O    -3.223000000     1.582000000     4.133000000
H    -2.967000000     2.072000000     4.914000000
H    -2.851000000     2.079000000     3.405000000
O    -2.959000000    -5.358000000    -3.098000000
H    -3.282000000    -6.255000000    -3.178000000
H    -2.118000000    -5.364000000    -3.556000000
O    -2.156000000     4.774000000     4.302000000
H    -1.431000000     4.529000000     3.726000000
H    -1.998000000     4.281000000     5.107000000
O    -2.464000000    -0.141000000    -4.445000000
H    -2.985000000    -0.857000000    -4.083000000
H    -2.898000000     0.078000000    -5.270000000
O     4.293000000    -2.144000000    -4.749000000
H     4.591000000    -3.015000000    -5.013000000
H     4.138000000    -2.220000000    -3.808000000
O    -4.340000000     3.906000000    -2.028000000
H    -5.282000000     3.742000000    -1.992000000
H    -4.123000000     3.854000000    -2.959000000
O    -0.617000000    -7.288000000    -2.009000000
H    -0.364000000    -7.108000000    -2.915000000
H    -0.081000000    -6.691000000    -1.487000000
O     6.934000000    -3.483000000    -3.080000000
H     6.321000000    -2.864000000    -2.685000000
H     7.799000000    -3.140000000    -2.856000000
O     0.877000000     4.562000000     3.621000000
H     1.501000000     4.056000000     4.140000000
H     0.353000000     3.902000000     3.166000000
O     1.468000000    -4.554000000    -3.127000000
H     1.424000000    -4.868000000    -2.224000000
H     1.338000000    -5.339000000    -3.659000000
O     0.348000000     0.065000000    -4.027000000
H    -0.536000000    -0.043000000    -4.380000000
H     0.760000000    -0.791000000    -4.148000000
O     3.889000000     0.664000000    -1.577000000
H     3.013000000     0.981000000    -1.795000000
H     4.480000000     1.236000000    -2.066000000
O     0.075000000    -1.281000000     3.613000000
H     0.957000000    -1.473000000     3.294000000
H    -0.064000000    -0.360000000     3.394000000
O     2.555000000     0.859000000     6.081000000
H     3.220000000     1.493000000     6.348000000
H     1.852000000     1.392000000     5.708000000
O    -3.148000000     4.978000000     0.119000000
H    -3.007000000     4.125000000     0.530000000
H    -3.802000000     4.812000000    -0.559000000
O     2.113000000     5.131000000     1.031000000
H     1.434000000     5.080000000     0.358000000
H     1.668000000     4.878000000     1.840000000
O    -0.119000000     5.601000000    -0.249000000
H    -0.844000000     4.989000000    -0.122000000
H    -0.435000000     6.425000000     0.121000000
O    -5.302000000    -0.960000000    -2.180000000
H    -6.174000000    -0.915000000    -1.789000000
H    -5.416000000    -0.607000000    -3.062000000
O     1.610000000    -2.401000000    -4.575000000
H     1.633000000    -3.183000000    -4.024000000
H     2.493000000    -2.341000000    -4.941000000
