158
-3036.36087
C    -1.293000000    -0.235000000    -0.480000000
H    -2.248000000    -0.461000000    -0.948000000
C    -0.109000000    -0.591000000    -1.113000000
H    -0.165000000    -0.979000000    -2.127000000
C     1.098000000    -0.322000000    -0.465000000
H     2.031000000    -0.673000000    -0.879000000
C     1.131000000     0.329000000     0.782000000
H     2.086000000     0.543000000     1.254000000
C    -0.063000000     0.775000000     1.294000000
H    -0.056000000     1.380000000     2.197000000
C    -1.314000000     0.579000000     0.655000000
C    -2.642000000     0.727000000     1.377000000
O    -3.660000000     0.689000000     0.748000000
O    -2.732000000     1.114000000     2.540000000
O    -5.450000000     4.931000000     0.234000000
H    -5.021000000     4.240000000     0.738000000
H    -6.049000000     4.466000000    -0.350000000
O    -1.966000000     0.490000000     5.484000000
H    -2.477000000    -0.247000000     5.818000000
H    -2.455000000     0.793000000     4.718000000
O     4.805000000    -4.493000000    -1.810000000
H     4.075000000    -5.044000000    -1.526000000
H     4.680000000    -3.669000000    -1.339000000
O    -4.536000000     2.811000000     7.153000000
H    -5.299000000     2.973000000     6.599000000
H    -3.804000000     2.746000000     6.539000000
O     2.956000000    -0.981000000     3.809000000
H     2.863000000    -1.468000000     4.628000000
H     2.631000000    -0.104000000     4.014000000
O     7.660000000    -0.536000000     1.781000000
H     7.372000000    -1.375000000     2.140000000
H     6.899000000    -0.206000000     1.302000000
O     1.288000000     3.962000000     3.153000000
H     0.399000000     3.608000000     3.184000000
H     1.488000000     4.028000000     2.220000000
O    -6.924000000    -0.336000000     2.405000000
H    -7.478000000    -0.190000000     3.172000000
H    -7.478000000    -0.101000000     1.661000000
O     0.032000000    -0.916000000    -5.234000000
H    -0.675000000    -1.443000000    -4.864000000
H    -0.405000000    -0.138000000    -5.581000000
O     4.593000000     1.229000000    -4.662000000
H     3.769000000     0.841000000    -4.369000000
H     4.733000000     1.968000000    -4.071000000
O     0.299000000     2.478000000    -1.205000000
H     0.222000000     1.564000000    -0.932000000
H    -0.448000000     2.618000000    -1.787000000
O     1.730000000     1.728000000    -4.229000000
H     1.392000000     1.937000000    -5.100000000
H     1.144000000     1.045000000    -3.903000000
O    -6.466000000    -2.356000000    -1.910000000
H    -7.127000000    -2.992000000    -1.636000000
H    -5.986000000    -2.149000000    -1.108000000
O    -6.367000000     2.806000000     4.565000000
H    -5.905000000     2.676000000     3.736000000
H    -7.052000000     2.137000000     4.564000000
O    -4.319000000     1.619000000    -1.778000000
H    -4.277000000     0.780000000    -2.236000000
H    -3.890000000     1.456000000    -0.938000000
O     1.265000000    -5.475000000    -3.337000000
H     1.448000000    -4.836000000    -2.648000000
H     1.452000000    -5.009000000    -4.152000000
O    -4.728000000    -1.672000000     0.971000000
H    -4.412000000    -0.771000000     0.897000000
H    -5.421000000    -1.629000000     1.631000000
O    -3.679000000    -4.360000000     0.311000000
H    -4.193000000    -3.612000000     0.617000000
H    -3.255000000    -4.697000000     1.100000000
O     4.753000000    -3.063000000    -4.831000000
H     4.756000000    -2.372000000    -5.492000000
H     4.044000000    -2.821000000    -4.235000000
O     4.637000000     0.126000000     1.372000000
H     5.094000000     0.751000000     1.935000000
H     3.904000000    -0.184000000     1.904000000
O     1.114000000     4.471000000     0.531000000
H     1.042000000     5.302000000     0.062000000
H     0.643000000     3.844000000    -0.019000000
O     3.629000000    -3.033000000     2.237000000
H     4.572000000    -2.944000000     2.380000000
H     3.233000000    -2.443000000     2.879000000
O     3.690000000     2.539000000     4.916000000
H     4.269000000     2.161000000     4.254000000
H     2.932000000     2.849000000     4.421000000
O    -2.481000000    -2.759000000    -4.219000000
H    -2.147000000    -3.367000000    -3.560000000
H    -3.032000000    -3.298000000    -4.786000000
O    -1.667000000     2.137000000    -3.500000000
H    -2.583000000     2.178000000    -3.776000000
H    -1.239000000     2.844000000    -3.982000000
O     4.617000000    -1.865000000    -0.704000000
H     4.498000000    -1.630000000     0.216000000
H     4.264000000    -1.120000000    -1.190000000
O     0.750000000    -3.780000000     3.944000000
H     0.599000000    -3.138000000     3.251000000
H     0.815000000    -4.617000000     3.485000000
O    -2.627000000    -1.934000000     3.321000000
H    -2.946000000    -2.036000000     2.424000000
H    -3.292000000    -1.397000000     3.752000000
O    -6.621000000     3.083000000    -1.544000000
H    -5.895000000     2.480000000    -1.706000000
H    -7.046000000     3.180000000    -2.396000000
O     5.064000000     1.415000000    -1.187000000
H     4.804000000     1.056000000    -0.339000000
H     4.400000000     2.076000000    -1.382000000
O     7.480000000    -2.552000000    -0.766000000
H     7.758000000    -1.649000000    -0.619000000
H     6.531000000    -2.496000000    -0.880000000
O    -4.762000000     3.012000000     2.013000000
H    -4.470000000     2.150000000     1.716000000
H    -3.964000000     3.540000000     2.037000000
O     1.700000000    -3.449000000    -1.669000000
H     2.526000000    -3.151000000    -1.288000000
H     1.053000000    -3.310000000    -0.976000000
O    -1.460000000     3.436000000     3.231000000
H    -1.718000000     4.013000000     2.512000000
H    -1.966000000     2.636000000     3.091000000
O     4.659000000    -0.664000000    -6.508000000
H     3.785000000    -0.843000000    -6.856000000
H     4.507000000    -0.065000000    -5.777000000
O     0.897000000     0.569000000     4.740000000
H    -0.046000000     0.408000000     4.741000000
H     1.009000000     1.345000000     5.288000000
O    -4.515000000    -0.014000000     3.980000000
H    -3.970000000     0.503000000     3.387000000
H    -5.386000000     0.007000000     3.584000000
O     2.869000000     2.843000000    -1.978000000
H     2.204000000     2.782000000    -1.293000000
H     2.387000000     2.697000000    -2.793000000
O     2.384000000    -1.694000000    -3.815000000
H     2.120000000    -2.458000000    -3.302000000
H     1.565000000    -1.237000000    -4.003000000
O    -0.214000000    -3.494000000     0.363000000
H    -1.098000000    -3.697000000     0.670000000
H    -0.222000000    -2.549000000     0.216000000
O    -0.172000000     2.426000000     7.196000000
H     0.075000000     1.603000000     7.618000000
H    -0.711000000     2.160000000     6.451000000
O    -3.198000000     4.203000000    -2.031000000
H    -3.496000000     3.314000000    -1.839000000
H    -3.935000000     4.610000000    -2.487000000
O    -1.149000000     5.604000000     5.092000000
H    -1.205000000     4.690000000     4.814000000
H    -1.930000000     6.015000000     4.722000000
O    -2.482000000     4.614000000     0.828000000
H    -2.530000000     5.527000000     1.115000000
H    -2.391000000     4.666000000    -0.123000000
O    -4.184000000    -0.721000000    -3.058000000
H    -4.822000000    -1.215000000    -2.543000000
H    -3.431000000    -1.307000000    -3.133000000
O     7.472000000     0.360000000    -1.837000000
H     6.575000000     0.693000000    -1.817000000
H     7.505000000    -0.192000000    -2.618000000
O    -5.457000000    -1.127000000     6.173000000
H    -4.608000000    -1.348000000     6.557000000
H    -5.240000000    -0.652000000     5.370000000
O    -2.120000000    -4.174000000    -1.960000000
H    -2.806000000    -4.088000000    -1.298000000
H    -1.413000000    -4.638000000    -1.513000000
