158
-3006.45381
C    -1.458000000     0.121000000     0.018000000
H    -2.523000000     0.339000000     0.012000000
C    -0.740000000    -0.581000000    -0.938000000
H    -1.172000000    -1.164000000    -1.747000000
C     0.658000000    -0.568000000    -0.925000000
H     1.254000000    -1.113000000    -1.641000000
C     1.309000000     0.238000000     0.059000000
H     2.393000000     0.228000000     0.144000000
C     0.561000000     0.848000000     1.062000000
H     1.099000000     1.348000000     1.863000000
C    -0.860000000     0.771000000     1.092000000
C    -1.656000000     1.407000000     2.203000000
O    -2.817000000     1.344000000     2.300000000
O    -1.103000000     2.123000000     2.996000000
O     4.077000000    -4.022000000     1.976000000
H     3.803000000    -4.814000000     2.437000000
H     3.738000000    -4.131000000     1.088000000
O     1.344000000    -2.788000000    -6.609000000
H     1.824000000    -2.759000000    -7.437000000
H     1.240000000    -1.870000000    -6.360000000
O    -7.609000000     2.848000000     3.094000000
H    -8.039000000     2.715000000     2.249000000
H    -6.738000000     2.468000000     2.982000000
O     0.701000000     5.534000000     5.155000000
H    -0.202000000     5.352000000     5.414000000
H     0.792000000     5.123000000     4.296000000
O     0.197000000     2.193000000    -4.192000000
H    -0.709000000     2.138000000    -3.889000000
H     0.671000000     2.582000000    -3.457000000
O     3.349000000    -6.376000000    -4.186000000
H     3.162000000    -5.709000000    -3.526000000
H     3.482000000    -5.881000000    -4.995000000
O     0.296000000    -4.082000000    -1.746000000
H    -0.225000000    -3.539000000    -1.154000000
H    -0.219000000    -4.882000000    -1.853000000
O     4.475000000    -3.073000000    -0.872000000
H     4.716000000    -2.629000000    -0.060000000
H     5.107000000    -2.753000000    -1.517000000
O    -0.514000000    -0.751000000    -5.318000000
H    -1.387000000    -0.451000000    -5.572000000
H    -0.096000000     0.022000000    -4.938000000
O     3.443000000     4.601000000    -1.455000000
H     2.753000000     3.953000000    -1.599000000
H     3.500000000     5.078000000    -2.283000000
O     4.295000000     0.562000000    -3.485000000
H     3.711000000     0.799000000    -4.206000000
H     4.477000000    -0.368000000    -3.620000000
O    -5.322000000     2.378000000     1.865000000
H    -5.674000000     1.839000000     1.157000000
H    -4.412000000     2.093000000     1.953000000
O    -7.675000000    -0.311000000     1.079000000
H    -6.834000000    -0.216000000     0.631000000
H    -7.477000000    -0.839000000     1.852000000
O    -0.172000000    -7.037000000     0.418000000
H     0.333000000    -6.405000000    -0.095000000
H    -1.067000000    -6.700000000     0.401000000
O    -1.227000000    -3.196000000     0.660000000
H    -0.765000000    -3.736000000     1.301000000
H    -0.904000000    -2.309000000     0.817000000
O     0.602000000    -2.747000000     4.032000000
H     0.410000000    -3.281000000     3.261000000
H    -0.230000000    -2.323000000     4.243000000
O    -4.159000000    -0.890000000     2.806000000
H    -3.656000000    -0.132000000     2.508000000
H    -4.220000000    -0.779000000     3.755000000
O    -4.819000000    -3.546000000     3.000000000
H    -4.575000000    -2.638000000     2.822000000
H    -5.302000000    -3.821000000     2.221000000
O     3.267000000     1.372000000     3.523000000
H     2.598000000     0.712000000     3.703000000
H     4.058000000     1.031000000     3.940000000
O     3.504000000    -2.187000000     3.957000000
H     3.620000000    -2.679000000     3.144000000
H     2.630000000    -2.431000000     4.262000000
O     3.438000000     5.828000000     0.854000000
H     3.530000000     5.603000000    -0.072000000
H     3.478000000     4.987000000     1.309000000
O     0.598000000    -4.798000000    -5.033000000
H     0.921000000    -4.199000000    -5.706000000
H     0.935000000    -4.440000000    -4.212000000
O     2.985000000     3.295000000     5.757000000
H     3.195000000     2.740000000     5.007000000
H     2.958000000     4.182000000     5.399000000
O    -3.248000000    -1.605000000    -3.888000000
H    -3.272000000    -1.616000000    -2.931000000
H    -2.520000000    -2.182000000    -4.116000000
O    -3.577000000     2.764000000    -1.173000000
H    -3.523000000     2.942000000    -0.234000000
H    -4.467000000     3.019000000    -1.415000000
O     5.047000000    -1.003000000     0.919000000
H     5.220000000    -0.657000000     1.795000000
H     4.196000000    -0.635000000     0.681000000
O    -1.579000000    -1.156000000     4.773000000
H    -1.974000000    -2.009000000     4.954000000
H    -2.086000000    -0.540000000     5.302000000
O    -5.730000000     4.801000000     0.807000000
H    -6.395000000     4.510000000     0.183000000
H    -5.646000000     4.074000000     1.424000000
O     3.606000000     3.166000000     1.571000000
H     3.487000000     2.532000000     2.279000000
H     4.127000000     2.699000000     0.917000000
O    -2.024000000     4.884000000     2.485000000
H    -2.289000000     4.643000000     3.373000000
H    -1.180000000     4.448000000     2.361000000
O     2.692000000    -4.087000000    -2.902000000
H     3.339000000    -3.927000000    -2.214000000
H     1.853000000    -3.866000000    -2.497000000
O    -2.769000000    -5.569000000     0.379000000
H    -2.238000000    -4.806000000     0.608000000
H    -2.801000000    -5.561000000    -0.577000000
O    -1.996000000     4.408000000     5.559000000
H    -2.507000000     5.015000000     6.094000000
H    -2.639000000     3.783000000     5.226000000
O     0.595000000     4.241000000     2.751000000
H     1.492000000     4.285000000     2.418000000
H     0.338000000     3.327000000     2.627000000
O     2.881000000     1.361000000    -5.711000000
H     2.063000000     0.945000000    -5.985000000
H     2.765000000     2.285000000    -5.931000000
O    -4.836000000    -0.446000000    -5.657000000
H    -5.519000000    -0.058000000    -5.109000000
H    -4.211000000    -0.816000000    -5.034000000
O    -2.355000000     1.821000000    -3.428000000
H    -2.930000000     2.087000000    -2.711000000
H    -2.496000000     0.878000000    -3.513000000
O    -0.515000000     1.967000000     5.700000000
H    -0.470000000     1.853000000     4.751000000
H    -1.127000000     2.692000000     5.825000000
O    -3.547000000     2.244000000     4.721000000
H    -3.041000000     2.007000000     3.944000000
H    -3.222000000     1.659000000     5.406000000
O     5.086000000     2.027000000    -1.163000000
H     4.569000000     2.825000000    -1.271000000
H     4.958000000     1.546000000    -1.980000000
O    -1.537000000    -3.331000000    -5.149000000
H    -0.877000000    -3.997000000    -4.954000000
H    -1.045000000    -2.510000000    -5.181000000
O     4.516000000    -2.249000000    -4.102000000
H     3.780000000    -2.859000000    -4.165000000
H     5.217000000    -2.760000000    -3.698000000
O     1.669000000    -0.141000000     5.525000000
H     1.181000000     0.682000000     5.493000000
H     1.092000000    -0.778000000     5.104000000
O    -0.920000000     4.177000000    -0.729000000
H    -1.652000000     3.971000000    -1.310000000
H    -1.078000000     5.081000000    -0.456000000
O    -0.897000000     7.375000000     2.829000000
H    -0.090000000     7.668000000     2.405000000
H    -0.797000000     6.426000000     2.904000000
O     1.301000000     2.731000000    -1.519000000
H     1.248000000     1.879000000    -1.086000000
H     0.553000000     3.221000000    -1.176000000
O    -5.464000000     0.536000000    -0.335000000
H    -4.902000000    -0.239000000    -0.355000000
H    -5.761000000     0.640000000    -1.239000000
O    -3.311000000    -2.482000000    -1.329000000
H    -2.971000000    -2.525000000    -0.435000000
H    -4.193000000    -2.849000000    -1.268000000
