158
-3028.06215
C    -1.069000000     0.651000000     0.704000000
H    -1.888000000     1.039000000     1.303000000
C    -1.229000000    -0.279000000    -0.270000000
H    -2.197000000    -0.643000000    -0.603000000
C    -0.143000000    -0.853000000    -0.853000000
H    -0.213000000    -1.563000000    -1.667000000
C     1.123000000    -0.345000000    -0.583000000
H     1.988000000    -0.738000000    -1.112000000
C     1.292000000     0.620000000     0.375000000
H     2.309000000     0.995000000     0.459000000
C     0.198000000     1.053000000     1.115000000
C     0.265000000     2.105000000     2.194000000
O    -0.605000000     2.329000000     2.991000000
O     1.280000000     2.797000000     2.267000000
O    -0.464000000     7.288000000     2.344000000
H     0.194000000     6.680000000     2.681000000
H    -0.953000000     7.565000000     3.119000000
O     0.816000000    -3.708000000    -5.905000000
H     0.881000000    -2.763000000    -6.042000000
H     1.568000000    -3.923000000    -5.354000000
O    -6.145000000     2.273000000    -2.060000000
H    -5.999000000     1.796000000    -2.877000000
H    -5.576000000     1.838000000    -1.424000000
O    -0.910000000    -0.172000000     6.796000000
H    -1.202000000    -0.576000000     5.979000000
H    -0.686000000     0.727000000     6.552000000
O     2.325000000    -5.060000000    -3.668000000
H     2.014000000    -5.836000000    -3.202000000
H     2.910000000    -5.405000000    -4.342000000
O     4.365000000    -0.262000000     0.141000000
H     4.072000000    -0.466000000    -0.747000000
H     5.308000000    -0.422000000     0.125000000
O    -0.642000000    -6.177000000    -2.686000000
H    -0.001000000    -6.883000000    -2.771000000
H    -0.691000000    -6.009000000    -1.745000000
O    -0.049000000    -2.168000000     1.816000000
H     0.382000000    -1.652000000     2.497000000
H     0.276000000    -1.799000000     0.994000000
O    -2.008000000     4.717000000     6.094000000
H    -2.230000000     4.247000000     5.290000000
H    -1.714000000     4.035000000     6.697000000
O     5.861000000     1.298000000    -3.880000000
H     6.487000000     0.861000000    -3.302000000
H     5.104000000     0.713000000    -3.898000000
O     1.384000000     1.470000000    -3.338000000
H     0.531000000     1.234000000    -2.974000000
H     1.233000000     1.531000000    -4.281000000
O     2.659000000    -4.082000000     1.047000000
H     3.453000000    -4.513000000     0.731000000
H     1.951000000    -4.680000000     0.809000000
O     5.913000000     2.968000000     2.864000000
H     5.446000000     2.153000000     3.047000000
H     5.242000000     3.556000000     2.517000000
O    -2.969000000     3.151000000     4.024000000
H    -2.082000000     2.864000000     3.806000000
H    -3.467000000     3.021000000     3.217000000
O    -5.062000000    -4.084000000    -1.024000000
H    -4.943000000    -3.312000000    -0.471000000
H    -4.391000000    -3.999000000    -1.702000000
O    -1.452000000    -4.369000000    -4.581000000
H    -1.136000000    -5.028000000    -3.964000000
H    -0.666000000    -4.078000000    -5.044000000
O    -2.769000000    -2.814000000    -2.280000000
H    -2.292000000    -3.399000000    -2.869000000
H    -2.344000000    -2.930000000    -1.430000000
O     3.553000000     3.804000000     1.447000000
H     3.261000000     4.711000000     1.349000000
H     2.743000000     3.294000000     1.471000000
O     1.381000000    -0.988000000     3.962000000
H     1.466000000    -1.101000000     4.908000000
H     2.182000000    -1.370000000     3.602000000
O     4.855000000    -4.594000000    -0.351000000
H     5.141000000    -5.313000000    -0.914000000
H     4.532000000    -3.928000000    -0.958000000
O    -1.793000000    -0.994000000     4.143000000
H    -2.394000000    -0.282000000     3.923000000
H    -0.925000000    -0.646000000     3.941000000
O     3.608000000    -1.999000000     2.389000000
H     3.164000000    -2.708000000     1.924000000
H     4.148000000    -1.576000000     1.721000000
O     4.162000000     1.091000000     3.732000000
H     4.061000000     0.325000000     3.168000000
H     3.423000000     1.655000000     3.506000000
O    -3.835000000    -2.892000000     3.835000000
H    -4.388000000    -2.906000000     4.616000000
H    -3.240000000    -2.156000000     3.976000000
O    -1.495000000    -3.726000000    -0.033000000
H    -1.612000000    -4.673000000     0.039000000
H    -0.908000000    -3.501000000     0.688000000
O     3.077000000     6.509000000     0.068000000
H     3.354000000     7.121000000     0.750000000
H     3.886000000     6.082000000    -0.213000000
O    -1.876000000     0.788000000    -5.641000000
H    -0.964000000     0.654000000    -5.381000000
H    -1.843000000     0.875000000    -6.594000000
O    -4.028000000     0.420000000     4.340000000
H    -3.861000000     1.360000000     4.403000000
H    -3.964000000     0.104000000     5.241000000
O    -5.350000000     0.609000000     1.932000000
H    -4.979000000     1.372000000     1.488000000
H    -5.007000000     0.661000000     2.824000000
O     4.619000000     2.351000000    -0.537000000
H     4.442000000     2.944000000     0.193000000
H     4.411000000     1.481000000    -0.195000000
O     3.154000000     6.277000000     4.112000000
H     2.359000000     5.862000000     3.777000000
H     3.261000000     7.060000000     3.571000000
O     3.894000000    -2.973000000    -2.216000000
H     3.850000000    -2.159000000    -2.718000000
H     3.136000000    -3.477000000    -2.510000000
O    -2.992000000     2.974000000    -1.098000000
H    -3.201000000     2.227000000    -1.658000000
H    -2.160000000     3.304000000    -1.438000000
O    -4.686000000    -2.271000000     0.900000000
H    -5.236000000    -1.714000000     1.451000000
H    -3.931000000    -2.480000000     1.450000000
O    -4.582000000    -1.505000000    -4.088000000
H    -4.869000000    -2.054000000    -4.818000000
H    -3.826000000    -1.965000000    -3.725000000
O     6.667000000    -1.159000000    -0.445000000
H     6.872000000    -1.049000000    -1.373000000
H     7.501000000    -1.401000000    -0.042000000
O     3.369000000     3.169000000    -2.792000000
H     2.748000000     2.487000000    -3.047000000
H     3.876000000     2.778000000    -2.081000000
O     0.791000000     5.099000000     3.544000000
H     0.111000000     4.754000000     4.123000000
H     1.116000000     4.332000000     3.073000000
O     0.545000000     1.689000000     5.314000000
H     0.195000000     1.962000000     4.466000000
H     1.487000000     1.844000000     5.246000000
O     1.806000000     5.343000000    -2.410000000
H     1.941000000     5.768000000    -1.563000000
H     2.496000000     4.681000000    -2.458000000
O     2.964000000    -1.684000000    -6.390000000
H     3.569000000    -1.007000000    -6.693000000
H     3.137000000    -2.433000000    -6.960000000
O    -0.435000000    -6.443000000     0.554000000
H     0.154000000    -6.568000000     1.298000000
H    -0.907000000    -7.273000000     0.481000000
O    -0.731000000     3.897000000    -2.425000000
H     0.200000000     4.069000000    -2.570000000
H    -1.179000000     4.456000000    -3.060000000
O     3.330000000    -0.501000000    -3.839000000
H     3.170000000    -1.029000000    -4.622000000
H     2.574000000     0.084000000    -3.787000000
O    -4.250000000     2.976000000     1.572000000
H    -3.887000000     2.656000000     0.746000000
H    -4.871000000     3.657000000     1.313000000
O    -4.797000000     1.091000000    -4.077000000
H    -3.972000000     1.335000000    -4.496000000
H    -4.872000000     0.149000000    -4.225000000
O    -4.855000000    -0.046000000    -0.873000000
H    -4.440000000    -0.564000000    -1.564000000
H    -5.041000000    -0.679000000    -0.179000000
O    -3.410000000     5.662000000    -0.038000000
H    -3.309000000     4.782000000    -0.399000000
H    -3.551000000     5.523000000     0.898000000
