158
-3012.93871
C    -1.029000000     0.441000000     0.905000000
H    -1.920000000     0.791000000     1.420000000
C    -1.050000000     0.457000000    -0.471000000
H    -1.826000000     1.087000000    -0.898000000
C     0.066000000     0.143000000    -1.237000000
H     0.058000000     0.265000000    -2.300000000
C     1.112000000    -0.436000000    -0.588000000
H     1.946000000    -0.789000000    -1.188000000
C     1.060000000    -0.659000000     0.785000000
H     1.737000000    -1.261000000     1.386000000
C    -0.004000000    -0.216000000     1.544000000
C    -0.072000000    -0.346000000     3.017000000
O    -0.774000000     0.479000000     3.643000000
O     0.238000000    -1.373000000     3.555000000
O    -0.143000000    -3.587000000    -0.285000000
H    -0.213000000    -2.657000000    -0.504000000
H     0.797000000    -3.741000000    -0.194000000
O    -2.513000000     0.780000000    -6.266000000
H    -2.828000000     1.668000000    -6.095000000
H    -1.705000000     0.905000000    -6.764000000
O    -2.160000000    -5.304000000     4.875000000
H    -2.287000000    -5.838000000     5.660000000
H    -1.701000000    -4.524000000     5.188000000
O     2.837000000     0.034000000    -6.430000000
H     3.790000000     0.118000000    -6.455000000
H     2.588000000    -0.151000000    -7.336000000
O     3.417000000    -5.031000000    -2.240000000
H     3.469000000    -5.958000000    -2.472000000
H     2.897000000    -4.638000000    -2.941000000
O     4.940000000    -1.963000000    -0.087000000
H     4.750000000    -1.309000000    -0.759000000
H     5.896000000    -2.026000000    -0.077000000
O    -2.590000000     2.421000000     7.434000000
H    -1.991000000     1.920000000     6.881000000
H    -2.213000000     2.360000000     8.312000000
O    -2.461000000     3.536000000    -5.621000000
H    -2.228000000     4.109000000    -6.352000000
H    -2.911000000     4.109000000    -5.001000000
O    -3.791000000     4.991000000     1.881000000
H    -3.475000000     5.014000000     0.978000000
H    -4.252000000     4.156000000     1.953000000
O     1.155000000     2.931000000    -0.491000000
H     0.956000000     2.069000000    -0.128000000
H     0.724000000     2.936000000    -1.346000000
O    -2.716000000     2.094000000     3.956000000
H    -2.070000000     1.389000000     3.921000000
H    -3.405000000     1.819000000     3.351000000
O    -3.121000000    -2.408000000    -1.575000000
H    -2.745000000    -3.230000000    -1.890000000
H    -2.409000000    -1.989000000    -1.091000000
O     2.766000000     0.998000000     5.002000000
H     2.724000000     0.042000000     4.991000000
H     1.875000000     1.275000000     5.219000000
O    -2.349000000    -2.405000000     3.519000000
H    -1.445000000    -2.144000000     3.695000000
H    -2.323000000    -2.780000000     2.639000000
O     1.547000000    -4.153000000     2.843000000
H     1.081000000    -3.344000000     3.053000000
H     1.950000000    -3.983000000     1.991000000
O     2.503000000    -1.953000000     5.203000000
H     2.330000000    -2.692000000     5.786000000
H     1.640000000    -1.698000000     4.877000000
O     2.688000000    -3.595000000    -0.049000000
H     3.377000000    -2.934000000     0.027000000
H     2.904000000    -4.075000000    -0.849000000
O    -1.896000000    -4.408000000     1.502000000
H    -1.517000000    -5.137000000     1.993000000
H    -1.215000000    -4.161000000     0.876000000
O    -0.449000000    -6.173000000     2.697000000
H    -0.641000000    -6.027000000     3.623000000
H     0.368000000    -5.698000000     2.544000000
O     1.988000000    -4.303000000    -4.319000000
H     1.575000000    -3.458000000    -4.496000000
H     1.518000000    -4.921000000    -4.880000000
O     1.276000000    -1.653000000    -4.652000000
H     0.486000000    -1.123000000    -4.545000000
H     1.822000000    -1.150000000    -5.256000000
O    -4.494000000     1.016000000     6.120000000
H    -4.321000000     1.799000000     6.642000000
H    -3.629000000     0.725000000     5.830000000
O    -4.615000000    -2.281000000     0.924000000
H    -4.292000000    -3.132000000     1.220000000
H    -4.397000000    -2.252000000    -0.008000000
O     4.036000000     2.932000000    -5.808000000
H     3.121000000     2.699000000    -5.651000000
H     4.534000000     2.347000000    -5.237000000
O    -5.314000000     2.011000000    -1.095000000
H    -4.559000000     2.103000000    -1.676000000
H    -5.689000000     1.161000000    -1.324000000
O     5.606000000     1.587000000    -0.470000000
H     6.280000000     0.949000000    -0.704000000
H     4.779000000     1.140000000    -0.653000000
O    -1.066000000    -3.285000000     6.212000000
H    -1.387000000    -3.510000000     7.085000000
H    -0.113000000    -3.314000000     6.292000000
O     2.739000000     1.817000000     2.382000000
H     3.478000000     1.256000000     2.148000000
H     2.523000000     1.567000000     3.280000000
O    -0.019000000     4.167000000     4.244000000
H    -0.848000000     4.620000000     4.398000000
H    -0.034000000     3.949000000     3.313000000
O     5.109000000    -2.131000000     4.257000000
H     5.587000000    -1.702000000     4.966000000
H     4.187000000    -1.967000000     4.455000000
O    -2.534000000     4.371000000    -0.456000000
H    -2.086000000     4.077000000    -1.250000000
H    -3.239000000     4.934000000    -0.774000000
O    -6.507000000    -0.631000000    -0.573000000
H    -7.157000000    -1.316000000    -0.417000000
H    -5.840000000    -0.776000000     0.098000000
O    -3.064000000    -1.631000000    -4.379000000
H    -3.960000000    -1.645000000    -4.716000000
H    -3.163000000    -1.441000000    -3.446000000
O     4.986000000     0.063000000     2.165000000
H     5.120000000    -0.578000000     1.467000000
H     5.450000000    -0.303000000     2.919000000
O    -5.972000000    -0.070000000     2.514000000
H    -5.276000000    -0.680000000     2.268000000
H    -6.186000000    -0.304000000     3.417000000
O     1.847000000    -4.653000000     6.211000000
H     2.437000000    -5.159000000     5.652000000
H     2.125000000    -4.860000000     7.103000000
O     1.672000000     6.163000000    -3.136000000
H     0.986000000     6.786000000    -3.375000000
H     1.248000000     5.565000000    -2.520000000
O     0.071000000     1.924000000     5.929000000
H     0.007000000     2.845000000     5.677000000
H    -0.348000000     1.449000000     5.211000000
O    -2.221000000    -0.654000000     5.895000000
H    -1.657000000    -0.567000000     5.127000000
H    -2.379000000    -1.595000000     5.971000000
O     4.398000000    -0.013000000    -2.274000000
H     5.155000000     0.318000000    -2.759000000
H     3.646000000     0.208000000    -2.824000000
O    -4.289000000    -3.064000000     5.591000000
H    -3.695000000    -2.890000000     4.861000000
H    -5.059000000    -2.527000000     5.407000000
O    -2.664000000     4.992000000     4.691000000
H    -3.044000000     5.110000000     3.821000000
H    -2.640000000     4.043000000     4.814000000
O    -0.379000000     4.159000000     1.397000000
H    -1.154000000     4.337000000     0.864000000
H     0.265000000     3.820000000     0.776000000
O    -0.180000000     3.623000000    -3.135000000
H     0.214000000     3.347000000    -3.962000000
H    -0.845000000     4.263000000    -3.388000000
O     1.278000000     2.595000000    -6.037000000
H     0.653000000     3.069000000    -6.586000000
H     1.220000000     1.688000000    -6.337000000
O    -4.582000000     2.189000000     1.612000000
H    -4.735000000     2.446000000     0.702000000
H    -5.065000000     1.370000000     1.714000000
O     0.272000000     2.156000000     8.667000000
H     1.022000000     2.744000000     8.756000000
H     0.187000000     2.018000000     7.723000000
O    -4.017000000     1.519000000    -3.532000000
H    -4.576000000     1.852000000    -4.234000000
H    -3.603000000     0.741000000    -3.905000000
