158
-3027.00441
C    -1.490000000    -0.221000000    -0.114000000
H    -2.551000000    -0.230000000    -0.347000000
C    -0.604000000    -0.190000000    -1.160000000
H    -0.960000000    -0.215000000    -2.187000000
C     0.745000000    -0.137000000    -0.916000000
H     1.388000000    -0.075000000    -1.845000000
C     1.245000000     0.078000000     0.331000000
H     2.326000000     0.090000000     0.444000000
C     0.357000000     0.129000000     1.353000000
H     0.739000000     0.342000000     2.348000000
C    -1.063000000     0.014000000     1.196000000
C    -2.013000000     0.039000000     2.467000000
O    -3.082000000     0.589000000     2.424000000
O    -1.562000000    -0.310000000     3.528000000
O    -1.534000000    -0.451000000     7.368000000
H    -2.113000000     0.047000000     6.791000000
H    -0.999000000    -0.978000000     6.775000000
O     1.383000000    -3.384000000    -6.575000000
H     1.892000000    -2.998000000    -7.288000000
H     0.721000000    -2.723000000    -6.369000000
O     2.140000000     5.313000000    -4.911000000
H     2.802000000     5.356000000    -4.221000000
H     1.364000000     5.719000000    -4.525000000
O     1.996000000    -2.544000000     6.178000000
H     2.262000000    -2.072000000     6.967000000
H     1.344000000    -1.975000000     5.767000000
O     1.588000000     3.829000000     3.694000000
H     0.695000000     3.721000000     4.019000000
H     1.532000000     3.610000000     2.763000000
O    -0.135000000     1.407000000    -4.927000000
H    -0.742000000     2.031000000    -5.324000000
H    -0.019000000     1.722000000    -4.031000000
O     0.325000000    -5.228000000    -2.173000000
H     0.220000000    -4.547000000    -1.508000000
H     0.088000000    -6.039000000    -1.725000000
O    -5.838000000    -0.002000000     5.359000000
H    -6.101000000    -0.860000000     5.690000000
H    -6.637000000     0.524000000     5.393000000
O    -0.177000000    -1.108000000    -5.888000000
H    -0.549000000    -1.618000000    -5.168000000
H    -0.253000000    -0.198000000    -5.601000000
O     5.708000000     4.261000000    -0.376000000
H     5.999000000     4.843000000    -1.078000000
H     5.319000000     3.514000000    -0.831000000
O     6.751000000     1.817000000    -4.109000000
H     6.606000000     2.729000000    -3.854000000
H     6.632000000     1.320000000    -3.300000000
O     2.472000000     3.876000000    -1.197000000
H     1.835000000     3.366000000    -1.699000000
H     3.021000000     4.293000000    -1.861000000
O     3.617000000     0.623000000    -3.620000000
H     3.201000000     0.827000000    -4.457000000
H     3.563000000    -0.331000000    -3.552000000
O    -7.636000000    -1.148000000     0.308000000
H    -8.257000000    -0.421000000     0.258000000
H    -6.783000000    -0.745000000     0.147000000
O    -4.337000000     3.140000000     4.842000000
H    -4.707000000     2.895000000     3.994000000
H    -3.932000000     2.337000000     5.168000000
O    -4.809000000     0.750000000     0.407000000
H    -4.123000000     0.675000000    -0.257000000
H    -4.385000000     0.479000000     1.221000000
O     0.410000000    -3.139000000    -0.450000000
H    -0.115000000    -3.088000000     0.350000000
H     0.532000000    -2.227000000    -0.714000000
O    -0.610000000    -2.998000000     2.149000000
H    -0.613000000    -3.939000000     2.324000000
H    -1.526000000    -2.736000000     2.233000000
O    -4.844000000    -0.976000000     3.123000000
H    -4.253000000    -0.255000000     2.904000000
H    -5.586000000    -0.555000000     3.555000000
O    -3.642000000    -2.566000000     1.093000000
H    -3.967000000    -2.086000000     1.855000000
H    -4.073000000    -3.420000000     1.146000000
O    -1.684000000    -4.670000000     5.584000000
H    -2.057000000    -3.932000000     5.101000000
H    -0.897000000    -4.904000000     5.092000000
O     2.574000000    -0.078000000    -6.358000000
H     1.708000000    -0.340000000    -6.045000000
H     2.957000000    -0.884000000    -6.705000000
O     4.256000000    -0.273000000     2.307000000
H     3.529000000    -0.853000000     2.532000000
H     4.471000000     0.171000000     3.127000000
O     3.715000000    -4.626000000     3.163000000
H     3.544000000    -5.490000000     2.788000000
H     3.117000000    -4.041000000     2.698000000
O     0.657000000     3.256000000     0.967000000
H     0.140000000     2.538000000     0.602000000
H     1.373000000     3.377000000     0.344000000
O    -0.405000000    -4.720000000    -4.665000000
H     0.232000000    -4.611000000    -5.371000000
H     0.125000000    -4.775000000    -3.870000000
O     1.976000000     1.462000000     5.064000000
H     2.897000000     1.540000000     5.314000000
H     1.662000000     2.365000000     5.020000000
O    -1.695000000    -2.461000000    -4.144000000
H    -2.022000000    -2.469000000    -3.245000000
H    -1.280000000    -3.316000000    -4.256000000
O    -3.614000000     1.190000000    -2.136000000
H    -4.122000000     0.476000000    -2.521000000
H    -3.646000000     1.887000000    -2.791000000
O     6.190000000    -1.572000000    -2.269000000
H     5.895000000    -0.918000000    -1.635000000
H     5.417000000    -1.754000000    -2.803000000
O    -2.878000000    -2.445000000     4.498000000
H    -2.403000000    -1.700000000     4.130000000
H    -3.762000000    -2.113000000     4.653000000
O    -5.745000000     3.276000000    -0.708000000
H    -5.722000000     2.976000000    -1.617000000
H    -5.389000000     2.543000000    -0.205000000
O     5.566000000    -0.115000000     0.010000000
H     5.114000000    -0.033000000     0.849000000
H     5.354000000     0.694000000    -0.456000000
O    -3.499000000     3.309000000     2.109000000
H    -3.386000000     2.382000000     1.902000000
H    -3.086000000     3.416000000     2.966000000
O     2.732000000    -4.573000000    -3.456000000
H     3.385000000    -4.937000000    -2.858000000
H     1.895000000    -4.728000000    -3.019000000
O    -1.201000000     3.186000000     4.603000000
H    -1.827000000     3.587000000     5.205000000
H    -1.267000000     2.248000000     4.779000000
O     5.415000000     1.254000000    -6.408000000
H     4.595000000     0.790000000    -6.241000000
H     5.712000000     1.536000000    -5.543000000
O    -3.781000000    -0.801000000    -5.055000000
H    -4.350000000    -0.792000000    -4.285000000
H    -2.952000000    -1.156000000    -4.736000000
O     0.442000000    -0.699000000     5.283000000
H    -0.328000000    -0.445000000     4.774000000
H     1.013000000     0.069000000     5.254000000
O    -3.297000000     0.451000000     5.278000000
H    -2.948000000     0.256000000     4.408000000
H    -4.244000000     0.346000000     5.184000000
O     4.658000000     2.002000000    -1.524000000
H     3.874000000     2.450000000    -1.206000000
H     4.362000000     1.523000000    -2.298000000
O     4.038000000    -2.066000000    -3.824000000
H     3.395000000    -2.775000000    -3.834000000
H     4.523000000    -2.170000000    -4.643000000
O     2.011000000    -2.433000000     2.422000000
H     1.228000000    -2.598000000     2.947000000
H     1.732000000    -1.785000000     1.774000000
O     4.208000000     4.074000000     4.195000000
H     4.636000000     3.644000000     3.455000000
H     3.272000000     3.976000000     4.021000000
O    -1.290000000     2.653000000     7.538000000
H    -1.199000000     2.785000000     8.482000000
H    -1.744000000     1.814000000     7.457000000
O    -0.089000000     3.170000000    -2.252000000
H    -0.799000000     2.594000000    -1.969000000
H    -0.497000000     4.033000000    -2.327000000
O    -5.053000000    -1.189000000    -2.845000000
H    -5.923000000    -1.535000000    -3.048000000
H    -4.853000000    -1.537000000    -1.976000000
O    -2.544000000    -3.452000000    -1.833000000
H    -2.862000000    -3.232000000    -0.958000000
H    -2.138000000    -4.313000000    -1.732000000
