158
-3019.59868
C    -0.527000000     0.115000000     1.370000000
H    -0.960000000     0.121000000     2.367000000
C    -0.809000000    -0.923000000     0.471000000
H    -1.647000000    -1.576000000     0.699000000
C    -0.234000000    -0.959000000    -0.823000000
H    -0.551000000    -1.723000000    -1.544000000
C     0.717000000     0.071000000    -1.100000000
H     1.240000000     0.070000000    -2.052000000
C     0.941000000     1.160000000    -0.196000000
H     1.576000000     1.998000000    -0.473000000
C     0.344000000     1.179000000     1.028000000
C     0.714000000     2.230000000     2.029000000
O     0.284000000     2.246000000     3.149000000
O     1.526000000     3.080000000     1.741000000
O    -4.275000000     2.640000000     3.603000000
H    -3.429000000     2.196000000     3.653000000
H    -4.762000000     2.156000000     2.937000000
O    -0.506000000     1.831000000     7.292000000
H    -0.365000000     2.367000000     8.073000000
H    -1.280000000     2.213000000     6.877000000
O     3.058000000    -5.080000000    -0.241000000
H     2.751000000    -4.890000000    -1.128000000
H     2.544000000    -5.839000000     0.033000000
O    -1.055000000    -6.636000000    -2.793000000
H    -0.774000000    -5.835000000    -2.350000000
H    -0.756000000    -6.527000000    -3.696000000
O    -0.504000000    -4.373000000     0.985000000
H    -0.394000000    -5.109000000     1.586000000
H     0.066000000    -3.689000000     1.335000000
O     1.847000000     1.859000000     5.581000000
H     1.517000000     2.137000000     4.726000000
H     1.134000000     2.058000000     6.188000000
O     5.927000000    -2.205000000    -2.822000000
H     5.102000000    -1.946000000    -2.412000000
H     6.518000000    -2.372000000    -2.088000000
O    -3.029000000    -3.993000000     4.844000000
H    -3.320000000    -3.271000000     4.287000000
H    -3.771000000    -4.163000000     5.424000000
O     1.185000000    -2.462000000     1.965000000
H     0.918000000    -1.654000000     1.525000000
H     0.998000000    -2.303000000     2.890000000
O    -4.482000000    -2.480000000    -1.692000000
H    -3.835000000    -1.963000000    -2.172000000
H    -3.969000000    -2.966000000    -1.047000000
O     1.262000000     7.061000000     2.551000000
H     0.373000000     6.761000000     2.739000000
H     1.826000000     6.452000000     3.028000000
O     0.881000000     6.332000000     5.986000000
H     1.625000000     5.958000000     6.458000000
H     0.457000000     5.580000000     5.573000000
O     3.852000000     1.181000000     3.056000000
H     3.703000000     1.181000000     4.001000000
H     3.118000000     1.679000000     2.697000000
O    -1.837000000     1.176000000     4.319000000
H    -1.700000000     0.565000000     5.044000000
H    -0.955000000     1.400000000     4.025000000
O    -3.284000000    -4.329000000     0.388000000
H    -3.437000000    -4.206000000     1.325000000
H    -2.446000000    -4.789000000     0.341000000
O    -2.871000000     0.366000000    -5.166000000
H    -2.163000000     0.032000000    -5.716000000
H    -3.327000000     0.999000000    -5.721000000
O    -0.396000000    -4.182000000    -1.837000000
H     0.510000000    -4.081000000    -2.132000000
H    -0.366000000    -3.986000000    -0.901000000
O     2.252000000    -4.648000000    -2.739000000
H     2.446000000    -3.843000000    -3.219000000
H     1.785000000    -5.196000000    -3.370000000
O     3.795000000     5.007000000    -1.343000000
H     3.345000000     4.889000000    -0.507000000
H     4.602000000     5.470000000    -1.118000000
O     5.477000000     4.630000000     1.174000000
H     5.936000000     5.160000000     0.523000000
H     5.874000000     3.762000000     1.100000000
O     0.992000000     5.557000000     0.234000000
H     1.083000000     6.058000000     1.045000000
H     1.156000000     4.650000000     0.494000000
O     4.693000000     0.088000000     0.385000000
H     4.462000000     0.769000000     1.017000000
H     5.396000000     0.474000000    -0.137000000
O    -0.344000000     4.557000000     4.504000000
H    -0.726000000     5.135000000     3.844000000
H    -0.146000000     3.749000000     4.030000000
O     1.145000000     0.033000000    -5.457000000
H     0.370000000    -0.229000000    -5.954000000
H     1.820000000     0.171000000    -6.121000000
O    -0.914000000    -5.457000000     3.599000000
H    -0.102000000    -4.961000000     3.701000000
H    -1.602000000    -4.848000000     3.870000000
O     1.009000000    -1.879000000     4.581000000
H     0.075000000    -1.756000000     4.750000000
H     1.445000000    -1.409000000     5.292000000
O     2.368000000    -3.147000000    -7.061000000
H     2.767000000    -3.079000000    -6.194000000
H     1.923000000    -3.994000000    -7.055000000
O    -4.784000000    -3.227000000     2.365000000
H    -5.039000000    -2.385000000     2.740000000
H    -5.386000000    -3.355000000     1.631000000
O    -1.254000000    -0.817000000     6.090000000
H    -0.971000000    -0.075000000     6.624000000
H    -1.165000000    -1.576000000     6.666000000
O    -3.141000000     4.511000000     1.759000000
H    -3.799000000     3.858000000     1.998000000
H    -2.844000000     4.244000000     0.889000000
O     0.861000000    -5.881000000    -4.743000000
H     0.781000000    -5.272000000    -5.477000000
H     0.677000000    -6.740000000    -5.123000000
O    -3.083000000     4.777000000     5.000000000
H    -3.581000000     4.220000000     4.402000000
H    -2.167000000     4.568000000     4.816000000
O     5.412000000     2.759000000    -1.946000000
H     4.717000000     3.191000000    -1.450000000
H     5.177000000     2.903000000    -2.862000000
O    -2.441000000     1.032000000    -1.434000000
H    -2.801000000     0.669000000    -2.244000000
H    -1.788000000     0.391000000    -1.155000000
O     1.843000000     6.361000000    -2.597000000
H     1.059000000     5.833000000    -2.448000000
H     2.558000000     5.832000000    -2.242000000
O    -1.239000000     6.243000000     2.394000000
H    -2.053000000     5.776000000     2.203000000
H    -1.482000000     6.885000000     3.060000000
O    -6.365000000    -0.331000000     0.343000000
H    -6.726000000    -0.777000000     1.108000000
H    -5.995000000    -1.034000000    -0.191000000
O     2.539000000    -2.145000000    -4.340000000
H     2.057000000    -1.424000000    -4.745000000
H     3.231000000    -1.718000000    -3.836000000
O     2.483000000    -0.574000000     6.344000000
H     2.080000000    -0.403000000     7.195000000
H     2.544000000     0.287000000     5.930000000
O    -0.382000000     4.540000000    -2.467000000
H    -0.795000000     4.783000000    -3.295000000
H     0.132000000     3.760000000    -2.676000000
O    -2.499000000    -1.453000000    -3.307000000
H    -2.681000000    -0.769000000    -3.952000000
H    -1.967000000    -2.093000000    -3.780000000
O     3.106000000     4.919000000     2.767000000
H     2.347000000     4.470000000     2.396000000
H     3.818000000     4.732000000     2.156000000
O    -3.951000000    -1.391000000     4.352000000
H    -4.591000000    -1.064000000     4.984000000
H    -3.238000000    -0.753000000     4.382000000
O    -5.645000000    -4.296000000    -3.495000000
H    -6.487000000    -4.287000000    -3.040000000
H    -5.056000000    -3.809000000    -2.919000000
O    -1.999000000     3.492000000    -0.570000000
H    -1.941000000     2.563000000    -0.794000000
H    -1.388000000     3.922000000    -1.169000000
O     3.476000000    -1.449000000    -1.472000000
H     4.066000000    -1.073000000    -0.819000000
H     2.601000000    -1.199000000    -1.176000000
O     0.440000000     2.280000000    -3.946000000
H     0.076000000     2.528000000    -4.795000000
H     0.905000000     1.461000000    -4.115000000
O    -5.865000000    -0.291000000    -5.328000000
H    -6.719000000     0.128000000    -5.225000000
H    -5.431000000    -0.160000000    -4.485000000
