158
-3029.62592
C     1.294000000    -0.350000000    -0.502000000
H     2.355000000    -0.478000000    -0.701000000
C     1.046000000     0.789000000     0.239000000
H     1.905000000     1.376000000     0.553000000
C    -0.253000000     0.961000000     0.675000000
H    -0.601000000     1.785000000     1.308000000
C    -1.294000000     0.129000000     0.226000000
H    -2.319000000     0.311000000     0.539000000
C    -1.033000000    -0.945000000    -0.635000000
H    -1.812000000    -1.595000000    -1.026000000
C     0.268000000    -1.166000000    -0.972000000
C     0.579000000    -2.338000000    -1.807000000
O    -0.028000000    -3.407000000    -1.633000000
O     1.598000000    -2.360000000    -2.447000000
O     1.294000000     2.522000000    -2.920000000
H     1.977000000     2.868000000    -2.345000000
H     0.492000000     2.953000000    -2.624000000
O    -4.005000000     4.650000000     5.319000000
H    -3.568000000     4.724000000     4.471000000
H    -3.621000000     3.870000000     5.719000000
O     2.470000000     1.181000000    -4.912000000
H     1.758000000     1.424000000    -4.320000000
H     2.979000000     0.536000000    -4.422000000
O    -3.488000000     3.049000000    -0.300000000
H    -3.972000000     2.275000000    -0.586000000
H    -3.694000000     3.130000000     0.632000000
O     2.526000000    -2.436000000     1.934000000
H     3.076000000    -1.719000000     1.618000000
H     2.880000000    -3.216000000     1.506000000
O    -1.162000000    -3.843000000    -4.889000000
H    -1.273000000    -4.066000000    -5.813000000
H    -0.725000000    -4.606000000    -4.510000000
O     1.649000000     0.361000000     3.168000000
H     1.029000000    -0.154000000     2.652000000
H     2.143000000     0.862000000     2.518000000
O    -3.808000000    -5.707000000     0.806000000
H    -3.155000000    -6.390000000     0.650000000
H    -3.300000000    -4.953000000     1.103000000
O     0.928000000     0.808000000     5.759000000
H     1.117000000     0.670000000     4.831000000
H     1.722000000     0.523000000     6.210000000
O     1.118000000     5.899000000     4.016000000
H     0.713000000     6.633000000     4.477000000
H     1.836000000     5.624000000     4.586000000
O    -2.709000000    -2.262000000    -3.492000000
H    -3.344000000    -2.841000000    -3.070000000
H    -2.000000000    -2.844000000    -3.767000000
O     4.586000000     1.306000000     3.675000000
H     5.500000000     1.587000000     3.714000000
H     4.134000000     2.019000000     3.224000000
O     2.615000000     3.404000000     3.032000000
H     1.930000000     3.793000000     2.488000000
H     3.367000000     3.985000000     2.923000000
O     5.359000000     4.078000000     2.815000000
H     5.159000000     3.617000000     2.000000000
H     5.660000000     4.943000000     2.533000000
O    -0.676000000    -0.459000000    -4.284000000
H     0.129000000    -0.550000000    -3.774000000
H    -1.326000000    -0.965000000    -3.796000000
O    -4.523000000    -0.619000000    -2.202000000
H    -5.268000000    -0.813000000    -2.772000000
H    -3.763000000    -0.952000000    -2.680000000
O     3.285000000     2.966000000     6.349000000
H     2.863000000     2.765000000     5.513000000
H     3.459000000     2.111000000     6.741000000
O     4.262000000    -1.997000000    -5.868000000
H     4.014000000    -2.919000000    -5.938000000
H     3.675000000    -1.545000000    -6.473000000
O    -0.177000000    -2.084000000     2.201000000
H    -0.112000000    -1.511000000     1.438000000
H     0.713000000    -2.412000000     2.331000000
O     4.056000000    -5.148000000    -5.943000000
H     4.555000000    -5.882000000    -5.585000000
H     3.685000000    -4.714000000    -5.174000000
O    -2.310000000    -1.006000000     4.177000000
H    -3.121000000    -0.743000000     3.741000000
H    -1.616000000    -0.611000000     3.649000000
O    -6.017000000     1.310000000    -1.011000000
H    -6.697000000     1.401000000    -1.678000000
H    -5.416000000     0.657000000    -1.369000000
O     3.449000000    -0.783000000    -3.366000000
H     2.709000000    -1.207000000    -2.931000000
H     3.749000000    -1.425000000    -4.009000000
O    -4.774000000     2.209000000     2.081000000
H    -5.503000000     2.544000000     1.560000000
H    -5.177000000     1.927000000     2.902000000
O    -1.025000000     3.010000000    -1.414000000
H    -1.807000000     2.997000000    -0.863000000
H    -0.551000000     2.214000000    -1.176000000
O     0.891000000     5.033000000     1.494000000
H     0.535000000     5.849000000     1.141000000
H     1.161000000     5.255000000     2.385000000
O     2.193000000     6.468000000    -1.158000000
H     1.682000000     6.542000000    -0.351000000
H     1.733000000     7.027000000    -1.784000000
O     4.401000000    -1.093000000     0.766000000
H     4.432000000    -0.335000000     0.181000000
H     5.183000000    -1.007000000     1.311000000
O     6.336000000     1.732000000     1.318000000
H     7.151000000     1.453000000     0.901000000
H     5.668000000     1.611000000     0.642000000
O    -2.552000000    -3.288000000     1.881000000
H    -3.113000000    -2.515000000     1.821000000
H    -1.672000000    -2.936000000     2.018000000
O    -1.982000000     5.459000000     1.203000000
H    -1.866000000     5.749000000     0.298000000
H    -1.195000000     4.947000000     1.392000000
O    -3.109000000     2.419000000     6.747000000
H    -3.032000000     2.618000000     7.681000000
H    -2.312000000     2.780000000     6.359000000
O     1.371000000    -7.756000000    -2.018000000
H     1.180000000    -6.865000000    -2.312000000
H     1.426000000    -7.687000000    -1.065000000
O    -3.231000000    -7.190000000    -3.481000000
H    -3.851000000    -7.762000000    -3.029000000
H    -2.830000000    -6.672000000    -2.783000000
O     5.201000000    -2.500000000    -1.503000000
H     5.000000000    -1.642000000    -1.878000000
H     4.921000000    -2.434000000    -0.590000000
O     0.952000000    -5.194000000    -3.355000000
H     1.889000000    -5.093000000    -3.518000000
H     0.757000000    -4.550000000    -2.674000000
O    -1.438000000    -5.830000000    -1.906000000
H    -1.096000000    -4.940000000    -1.820000000
H    -1.156000000    -6.273000000    -1.106000000
O     3.016000000     3.564000000    -0.561000000
H     3.928000000     3.852000000    -0.598000000
H     2.569000000     4.248000000    -0.062000000
O    -4.026000000    -4.459000000    -1.887000000
H    -3.229000000    -4.963000000    -2.049000000
H    -4.234000000    -4.628000000    -0.968000000
O    -1.244000000     5.422000000    -1.911000000
H    -1.095000000     4.518000000    -1.633000000
H    -0.491000000     5.629000000    -2.463000000
O     0.937000000    -4.812000000     0.806000000
H     0.816000000    -4.450000000    -0.072000000
H     0.276000000    -4.369000000     1.340000000
O     3.477000000    -3.839000000    -3.514000000
H     2.703000000    -3.408000000    -3.149000000
H     4.134000000    -3.777000000    -2.821000000
O     0.760000000    -2.191000000    -6.260000000
H     0.408000000    -1.337000000    -6.007000000
H     0.490000000    -2.780000000    -5.556000000
O    -5.967000000    -2.938000000    -0.409000000
H    -6.473000000    -2.185000000    -0.713000000
H    -5.887000000    -3.500000000    -1.181000000
O    -0.774000000     3.152000000     5.789000000
H    -0.147000000     2.431000000     5.855000000
H    -0.238000000     3.917000000     5.580000000
O    -4.194000000    -0.942000000     1.901000000
H    -5.052000000    -1.269000000     1.630000000
H    -4.348000000    -0.025000000     2.129000000
O     4.924000000     1.121000000    -0.867000000
H     4.199000000     1.737000000    -0.972000000
H     5.371000000     1.130000000    -1.713000000
O     4.313000000    -4.753000000     0.060000000
H     4.432000000    -5.683000000    -0.133000000
H     4.739000000    -4.301000000    -0.668000000
