158
-3028.74908
C    -0.529000000    -0.589000000     1.347000000
H    -0.827000000    -1.148000000     2.230000000
C    -0.168000000    -1.340000000     0.208000000
H    -0.202000000    -2.426000000     0.163000000
C     0.244000000    -0.682000000    -0.962000000
H     0.468000000    -1.164000000    -1.890000000
C     0.269000000     0.750000000    -1.060000000
H     0.564000000     1.224000000    -1.993000000
C     0.016000000     1.456000000     0.147000000
H     0.156000000     2.534000000     0.107000000
C    -0.364000000     0.868000000     1.318000000
C    -0.542000000     1.732000000     2.467000000
O    -0.427000000     1.226000000     3.559000000
O    -0.641000000     2.927000000     2.402000000
O    -0.027000000    -2.056000000    -7.933000000
H     0.280000000    -1.172000000    -7.729000000
H     0.773000000    -2.574000000    -8.018000000
O     2.991000000    -3.066000000    -0.559000000
H     2.948000000    -2.717000000    -1.449000000
H     2.901000000    -2.297000000     0.004000000
O    -3.152000000    -2.542000000    -4.039000000
H    -2.476000000    -2.782000000    -3.406000000
H    -3.976000000    -2.779000000    -3.612000000
O     3.078000000    -1.315000000    -2.775000000
H     2.230000000    -1.143000000    -3.184000000
H     3.294000000    -0.502000000    -2.319000000
O    -4.740000000     2.126000000     6.271000000
H    -3.851000000     2.470000000     6.186000000
H    -4.636000000     1.177000000     6.203000000
O     5.912000000    -0.768000000    -0.412000000
H     5.551000000    -0.869000000    -1.293000000
H     6.797000000    -1.127000000    -0.473000000
O     4.049000000     1.250000000    -2.024000000
H     3.864000000     1.989000000    -1.444000000
H     4.254000000     1.653000000    -2.868000000
O    -1.701000000    -3.304000000    -1.803000000
H    -1.234000000    -3.732000000    -1.085000000
H    -2.066000000    -2.511000000    -1.412000000
O     3.304000000    -4.107000000    -4.543000000
H     2.368000000    -3.906000000    -4.529000000
H     3.725000000    -3.273000000    -4.754000000
O    -3.401000000    -6.185000000    -0.386000000
H    -3.388000000    -7.044000000     0.035000000
H    -2.638000000    -5.731000000    -0.027000000
O     1.902000000     1.720000000     4.859000000
H     1.023000000     1.543000000     4.524000000
H     2.458000000     1.729000000     4.080000000
O    -1.388000000    -5.113000000     3.239000000
H    -2.138000000    -5.476000000     3.709000000
H    -0.646000000    -5.251000000     3.828000000
O     0.608000000     6.540000000     5.205000000
H     0.418000000     6.197000000     4.331000000
H     0.588000000     5.770000000     5.774000000
O    -3.493000000     5.441000000     4.202000000
H    -3.246000000     6.266000000     4.620000000
H    -2.744000000     4.863000000     4.352000000
O     0.033000000    -2.090000000     4.916000000
H     0.332000000    -2.046000000     5.825000000
H    -0.423000000    -1.260000000     4.774000000
O    -1.311000000    -0.862000000    -5.589000000
H    -2.072000000    -1.293000000    -5.199000000
H    -1.103000000    -1.393000000    -6.358000000
O     0.673000000    -3.670000000    -4.140000000
H     0.006000000    -3.328000000    -4.735000000
H     0.193000000    -3.890000000    -3.342000000
O     1.274000000     5.319000000    -1.632000000
H     1.100000000     6.147000000    -1.184000000
H     2.002000000     5.515000000    -2.222000000
O     3.496000000     3.727000000    -0.282000000
H     2.739000000     4.016000000    -0.791000000
H     3.867000000     4.533000000     0.076000000
O     2.233000000     2.360000000     2.244000000
H     1.383000000     2.785000000     2.356000000
H     2.728000000     2.956000000     1.681000000
O     2.674000000    -1.005000000     1.091000000
H     2.958000000    -0.176000000     1.476000000
H     1.769000000    -0.848000000     0.824000000
O    -1.695000000     1.043000000     6.136000000
H    -1.177000000     0.989000000     5.333000000
H    -2.250000000     0.264000000     6.116000000
O     2.337000000     4.203000000     5.684000000
H     2.190000000     3.326000000     5.330000000
H     2.687000000     4.703000000     4.947000000
O     5.625000000    -1.797000000    -3.600000000
H     4.712000000    -1.694000000    -3.332000000
H     5.710000000    -1.246000000    -4.378000000
O     3.758000000    -5.625000000    -2.378000000
H     3.519000000    -5.024000000    -3.084000000
H     3.493000000    -5.171000000    -1.577000000
O     5.318000000     1.488000000     0.919000000
H     4.501000000     1.576000000     0.428000000
H     5.824000000     0.839000000     0.430000000
O    -0.583000000     1.969000000    -6.353000000
H    -1.086000000     1.475000000    -5.705000000
H     0.245000000     2.166000000    -5.914000000
O    -0.062000000     5.629000000     2.654000000
H    -0.410000000     4.828000000     2.261000000
H     0.164000000     6.183000000     1.907000000
O    -0.937000000    -4.862000000     0.502000000
H    -0.049000000    -5.191000000     0.362000000
H    -1.073000000    -4.935000000     1.446000000
O    -3.487000000     0.572000000    -2.324000000
H    -3.301000000    -0.123000000    -1.692000000
H    -3.055000000     1.346000000    -1.963000000
O     3.238000000    -1.137000000    -6.246000000
H     4.034000000    -0.653000000    -6.028000000
H     2.669000000    -1.017000000    -5.486000000
O    -0.874000000     2.987000000     7.821000000
H    -1.394000000     2.296000000     7.411000000
H    -0.600000000     2.615000000     8.660000000
O     2.078000000    -3.248000000     3.725000000
H     1.217000000    -3.100000000     4.118000000
H     2.325000000    -2.398000000     3.362000000
O    -3.912000000    -0.547000000     6.075000000
H    -3.558000000    -0.982000000     6.850000000
H    -4.521000000    -1.184000000     5.700000000
O    -2.955000000     3.130000000    -1.048000000
H    -3.135000000     3.135000000    -0.108000000
H    -3.699000000     3.590000000    -1.437000000
O    -3.330000000    -1.600000000    -0.389000000
H    -3.153000000    -1.062000000     0.383000000
H    -3.968000000    -2.247000000    -0.089000000
O     1.233000000    -0.324000000    -4.553000000
H     1.434000000     0.610000000    -4.485000000
H     0.321000000    -0.352000000    -4.841000000
O    -3.414000000     1.828000000    -5.153000000
H    -4.049000000     2.483000000    -4.863000000
H    -3.310000000     1.246000000    -4.400000000
O     2.974000000     0.197000000     6.856000000
H     2.528000000     0.697000000     6.173000000
H     3.261000000     0.856000000     7.487000000
O    -2.615000000    -4.074000000     5.716000000
H    -1.816000000    -3.705000000     5.341000000
H    -2.428000000    -4.150000000     6.652000000
O    -2.570000000    -4.888000000    -5.844000000
H    -2.307000000    -4.519000000    -5.001000000
H    -1.985000000    -5.635000000    -5.972000000
O    -0.743000000     4.008000000    -2.862000000
H     0.026000000     4.354000000    -2.409000000
H    -1.179000000     3.461000000    -2.209000000
O     1.607000000    -5.374000000     0.088000000
H     2.156000000    -4.606000000    -0.066000000
H     2.143000000    -5.948000000     0.635000000
O    -3.116000000     3.625000000     1.845000000
H    -3.454000000     4.250000000     2.487000000
H    -2.224000000     3.439000000     2.138000000
O    -3.994000000     0.442000000     1.439000000
H    -4.318000000     0.057000000     2.253000000
H    -3.381000000     1.120000000     1.721000000
O    -2.854000000     6.240000000    -1.616000000
H    -3.569000000     6.098000000    -0.995000000
H    -2.133000000     5.712000000    -1.274000000
O    -1.092000000     3.886000000     4.927000000
H    -0.724000000     3.368000000     4.211000000
H    -0.874000000     3.391000000     5.717000000
O     1.440000000     2.684000000    -4.411000000
H     2.141000000     3.289000000    -4.655000000
H     0.798000000     3.231000000    -3.958000000
