158
-3016.72465
C     1.288000000     0.223000000     0.685000000
H     2.187000000     0.351000000     1.283000000
C     0.073000000     0.840000000     1.059000000
H     0.082000000     1.522000000     1.906000000
C    -1.092000000     0.530000000     0.383000000
H    -1.978000000     1.080000000     0.603000000
C    -0.965000000    -0.471000000    -0.682000000
H    -1.841000000    -0.796000000    -1.237000000
C     0.266000000    -1.097000000    -1.038000000
H     0.308000000    -1.831000000    -1.839000000
C     1.435000000    -0.653000000    -0.415000000
C     2.756000000    -1.151000000    -0.856000000
O     2.824000000    -2.052000000    -1.630000000
O     3.687000000    -0.439000000    -0.569000000
O     7.202000000     1.712000000    -1.042000000
H     7.971000000     2.276000000    -1.127000000
H     6.704000000     2.092000000    -0.319000000
O    -4.399000000    -1.449000000     1.647000000
H    -4.354000000    -0.670000000     2.200000000
H    -3.487000000    -1.723000000     1.544000000
O     6.526000000    -3.372000000    -3.429000000
H     5.592000000    -3.520000000    -3.576000000
H     6.568000000    -2.518000000    -2.999000000
O    -0.310000000     4.345000000     2.875000000
H    -0.753000000     3.932000000     2.133000000
H     0.388000000     3.733000000     3.107000000
O    -7.080000000    -1.957000000     1.075000000
H    -7.485000000    -1.936000000     1.942000000
H    -6.162000000    -1.736000000     1.235000000
O    -3.255000000     4.115000000     0.097000000
H    -3.566000000     3.423000000    -0.487000000
H    -2.302000000     4.082000000     0.022000000
O    -6.077000000     2.206000000    -3.745000000
H    -6.493000000     1.360000000    -3.913000000
H    -5.393000000     2.013000000    -3.104000000
O    -3.423000000    -0.128000000    -3.899000000
H    -2.978000000    -0.937000000    -3.648000000
H    -2.969000000     0.159000000    -4.692000000
O     4.192000000    -1.645000000     3.943000000
H     4.684000000    -0.855000000     4.164000000
H     4.694000000    -2.049000000     3.235000000
O     3.792000000    -2.897000000    -4.109000000
H     3.205000000    -2.693000000    -3.381000000
H     3.884000000    -2.069000000    -4.581000000
O     0.903000000     6.781000000     2.379000000
H     0.418000000     5.987000000     2.602000000
H     0.646000000     7.414000000     3.049000000
O     0.080000000    -1.006000000    -5.392000000
H    -0.687000000    -0.738000000    -5.899000000
H    -0.219000000    -1.763000000    -4.889000000
O    -0.044000000    -4.884000000     0.154000000
H    -0.510000000    -5.612000000    -0.255000000
H    -0.728000000    -4.376000000     0.590000000
O    -2.825000000     0.271000000     3.497000000
H    -3.488000000     0.161000000     4.179000000
H    -2.447000000     1.133000000     3.666000000
O     1.762000000    -4.284000000    -1.933000000
H     2.134000000    -3.404000000    -1.984000000
H     1.245000000    -4.279000000    -1.127000000
O    -5.859000000     3.944000000     3.655000000
H    -6.670000000     4.452000000     3.673000000
H    -5.788000000     3.573000000     4.534000000
O     4.299000000    -5.727000000    -3.013000000
H     4.751000000    -6.225000000    -3.694000000
H     3.746000000    -5.111000000    -3.493000000
O    -2.055000000     4.679000000     5.262000000
H    -1.330000000     5.236000000     4.978000000
H    -2.367000000     4.265000000     4.457000000
O     2.478000000    -5.620000000     1.386000000
H     2.835000000    -4.736000000     1.473000000
H     1.667000000    -5.504000000     0.892000000
O     1.000000000     2.125000000    -1.419000000
H     0.621000000     1.517000000    -0.786000000
H     0.753000000     1.768000000    -2.272000000
O    -3.418000000     3.318000000     2.786000000
H    -3.322000000     3.753000000     1.939000000
H    -4.308000000     3.531000000     3.065000000
O     4.898000000    -3.870000000     1.967000000
H     5.623000000    -3.298000000     2.217000000
H     4.950000000    -3.919000000     1.012000000
O     7.548000000    -3.154000000     0.177000000
H     7.613000000    -2.883000000     1.092000000
H     6.810000000    -2.653000000    -0.170000000
O    -5.407000000    -0.361000000    -1.008000000
H    -5.170000000    -1.023000000    -0.358000000
H    -6.295000000    -0.597000000    -1.276000000
O    -2.406000000    -4.785000000    -2.988000000
H    -2.217000000    -5.203000000    -2.148000000
H    -1.713000000    -5.095000000    -3.571000000
O     4.576000000    -3.769000000    -0.838000000
H     4.063000000    -3.090000000    -1.276000000
H     4.477000000    -4.541000000    -1.395000000
O    -5.666000000     5.131000000     0.576000000
H    -5.752000000     4.672000000     1.411000000
H    -4.807000000     4.868000000     0.245000000
O     4.363000000     1.621000000     4.503000000
H     3.926000000     1.736000000     5.347000000
H     4.578000000     2.511000000     4.222000000
O    -5.061000000     2.506000000     6.110000000
H    -4.367000000     2.619000000     5.461000000
H    -4.688000000     1.913000000     6.761000000
O    -2.323000000    -2.590000000     3.201000000
H    -2.438000000    -3.024000000     4.046000000
H    -2.470000000    -1.662000000     3.386000000
O     3.086000000     0.748000000    -3.181000000
H     2.177000000     1.002000000    -3.340000000
H     3.037000000     0.119000000    -2.461000000
O    -4.926000000    -3.913000000    -2.782000000
H    -5.528000000    -4.649000000    -2.897000000
H    -4.057000000    -4.292000000    -2.917000000
O     5.424000000     1.923000000    -3.225000000
H     5.805000000     1.669000000    -2.384000000
H     4.615000000     1.416000000    -3.284000000
O     0.128000000     1.051000000     5.298000000
H     0.808000000     1.202000000     5.955000000
H     0.222000000     0.128000000     5.064000000
O    -3.875000000     2.218000000    -1.818000000
H    -4.117000000     1.333000000    -1.547000000
H    -3.421000000     2.098000000    -2.652000000
O     3.061000000     3.659000000    -0.184000000
H     2.453000000     3.823000000     0.536000000
H     2.502000000     3.388000000    -0.913000000
O     1.749000000     2.643000000     3.732000000
H     1.179000000     2.089000000     4.266000000
H     2.588000000     2.183000000     3.720000000
O    -1.808000000    -2.539000000    -4.158000000
H    -2.469000000    -2.378000000    -4.832000000
H    -2.046000000    -3.390000000    -3.789000000
O     6.256000000    -0.687000000    -1.659000000
H     6.812000000     0.084000000    -1.548000000
H     5.412000000    -0.429000000    -1.288000000
O    -0.372000000     4.075000000    -0.100000000
H     0.215000000     3.446000000    -0.520000000
H    -0.374000000     4.830000000    -0.688000000
O    -2.312000000     2.088000000     5.825000000
H    -2.283000000     3.024000000     5.629000000
H    -1.442000000     1.767000000     5.592000000
O     1.326000000    -1.286000000     4.631000000
H     2.196000000    -1.088000000     4.286000000
H     0.875000000    -1.721000000     3.907000000
O     4.900000000     1.654000000     0.377000000
H     4.274000000     2.364000000     0.236000000
H     4.399000000     0.856000000     0.206000000
O     0.886000000    -6.500000000    -3.577000000
H     1.312000000    -5.713000000    -3.238000000
H     1.529000000    -6.882000000    -4.175000000
O    -5.645000000    -1.800000000    -4.290000000
H    -5.356000000    -2.433000000    -3.633000000
H    -5.087000000    -1.035000000    -4.147000000
O     2.624000000     5.087000000     4.897000000
H     2.507000000     4.278000000     4.400000000
H     1.742000000     5.321000000     5.186000000
O     0.306000000     1.297000000    -3.825000000
H    -0.327000000     1.851000000    -4.282000000
H     0.208000000     0.435000000    -4.231000000
O     0.052000000    -2.220000000     2.109000000
H     0.119000000    -1.812000000     1.245000000
H    -0.852000000    -2.059000000     2.379000000
