158
-3040.79819
C    -0.225000000     0.530000000     1.371000000
H    -0.538000000     0.644000000     2.405000000
C     0.249000000    -0.737000000     1.107000000
H     0.235000000    -1.512000000     1.869000000
C     0.452000000    -1.112000000    -0.226000000
H     0.746000000    -2.164000000    -0.541000000
C     0.204000000    -0.229000000    -1.250000000
H     0.219000000    -0.604000000    -2.270000000
C    -0.209000000     1.116000000    -0.966000000
H    -0.495000000     1.804000000    -1.758000000
C    -0.496000000     1.463000000     0.342000000
C    -1.005000000     2.843000000     0.697000000
O    -1.233000000     3.091000000     1.888000000
O    -1.219000000     3.675000000    -0.174000000
O    -0.817000000     6.025000000     0.943000000
H    -0.704000000     5.173000000     0.520000000
H     0.075000000     6.324000000     1.119000000
O     1.144000000     2.020000000    -6.053000000
H     1.274000000     1.877000000    -6.991000000
H     0.438000000     1.419000000    -5.815000000
O     2.573000000    -3.515000000    -5.591000000
H     3.393000000    -3.898000000    -5.901000000
H     2.671000000    -2.577000000    -5.750000000
O    -6.258000000     1.357000000     0.015000000
H    -6.591000000     0.820000000    -0.704000000
H    -5.307000000     1.276000000    -0.045000000
O    -0.937000000    -0.016000000    -5.740000000
H    -1.765000000     0.271000000    -6.123000000
H    -1.133000000    -0.140000000    -4.811000000
O    -2.904000000     5.210000000     2.862000000
H    -2.441000000     4.409000000     2.618000000
H    -2.449000000     5.904000000     2.386000000
O     3.431000000     2.136000000     0.910000000
H     3.679000000     1.236000000     0.699000000
H     3.116000000     2.092000000     1.813000000
O    -0.556000000    -6.220000000     0.272000000
H    -0.796000000    -7.041000000    -0.158000000
H    -0.616000000    -5.561000000    -0.420000000
O     0.749000000    -7.072000000     3.332000000
H     1.549000000    -6.984000000     3.851000000
H     0.765000000    -6.321000000     2.739000000
O    -2.863000000    -2.669000000     0.993000000
H    -2.124000000    -3.268000000     1.100000000
H    -3.505000000    -2.962000000     1.639000000
O     2.227000000     5.897000000    -0.439000000
H     1.548000000     6.554000000    -0.290000000
H     1.854000000     5.313000000    -1.099000000
O    -1.101000000     8.159000000    -1.126000000
H    -1.246000000     7.721000000    -0.287000000
H    -1.976000000     8.246000000    -1.504000000
O     0.580000000     3.172000000     3.843000000
H     0.088000000     2.679000000     4.500000000
H     0.012000000     3.176000000     3.073000000
O     1.860000000     2.936000000    -3.422000000
H     1.276000000     3.629000000    -3.112000000
H     1.523000000     2.709000000    -4.289000000
O    -2.653000000    -0.414000000    -3.255000000
H    -2.571000000    -0.850000000    -2.407000000
H    -3.008000000    -1.085000000    -3.837000000
O    -0.172000000     4.645000000    -2.581000000
H    -0.666000000     4.289000000    -1.843000000
H    -0.737000000     5.329000000    -2.940000000
O     2.211000000     5.468000000     3.764000000
H     1.739000000     4.641000000     3.862000000
H     1.946000000     5.795000000     2.904000000
O     3.298000000    -0.737000000     0.554000000
H     2.387000000    -0.715000000     0.263000000
H     3.741000000    -1.291000000    -0.088000000
O    -2.767000000    -6.116000000    -3.835000000
H    -2.295000000    -5.933000000    -3.023000000
H    -3.678000000    -6.224000000    -3.563000000
O     2.230000000    -7.113000000    -0.431000000
H     1.545000000    -6.643000000     0.044000000
H     2.891000000    -6.447000000    -0.620000000
O     4.816000000    -2.856000000    -0.756000000
H     5.286000000    -3.341000000    -0.078000000
H     5.506000000    -2.447000000    -1.278000000
O    -0.730000000    -4.134000000     2.011000000
H     0.197000000    -3.911000000     1.935000000
H    -0.832000000    -4.919000000     1.472000000
O    -2.036000000    -0.241000000     4.977000000
H    -2.309000000     0.574000000     4.555000000
H    -1.326000000     0.020000000     5.564000000
O     3.816000000     1.862000000    -1.799000000
H     3.709000000     1.977000000    -0.855000000
H     2.996000000     2.187000000    -2.173000000
O    -5.083000000    -0.048000000     3.322000000
H    -4.400000000     0.590000000     3.529000000
H    -4.615000000    -0.879000000     3.232000000
O    -3.194000000    -2.773000000    -1.744000000
H    -4.097000000    -2.928000000    -2.022000000
H    -3.246000000    -2.702000000    -0.791000000
O    -5.609000000     5.570000000     3.157000000
H    -4.742000000     5.427000000     2.778000000
H    -6.218000000     5.301000000     2.469000000
O     2.870000000    -0.846000000     3.149000000
H     3.135000000    -0.872000000     2.229000000
H     2.755000000    -1.765000000     3.390000000
O    -3.079000000    -3.669000000     4.721000000
H    -2.125000000    -3.683000000     4.801000000
H    -3.364000000    -3.019000000     5.364000000
O     2.995000000     2.266000000     3.735000000
H     2.111000000     2.547000000     3.970000000
H     2.929000000     1.315000000     3.648000000
O     2.112000000    -5.128000000     1.870000000
H     3.025000000    -5.147000000     2.155000000
H     2.156000000    -4.914000000     0.938000000
O     3.494000000     5.002000000    -3.608000000
H     2.906000000     4.259000000    -3.470000000
H     4.285000000     4.614000000    -3.984000000
O     4.631000000    -0.002000000    -3.645000000
H     4.534000000     0.400000000    -2.782000000
H     3.982000000     0.443000000    -4.190000000
O    -1.180000000    -4.588000000    -1.698000000
H    -0.651000000    -4.580000000    -2.495000000
H    -1.660000000    -3.760000000    -1.721000000
O    -3.712000000     2.875000000    -1.143000000
H    -2.934000000     3.402000000    -0.959000000
H    -3.433000000     1.973000000    -0.984000000
O     1.369000000    -1.032000000     5.667000000
H     1.756000000    -0.924000000     4.799000000
H     1.818000000    -0.385000000     6.212000000
O    -2.781000000     2.408000000     7.071000000
H    -2.903000000     2.671000000     6.159000000
H    -3.520000000     2.803000000     7.535000000
O    -3.096000000     6.573000000     5.182000000
H    -3.222000000     6.090000000     4.365000000
H    -2.766000000     5.920000000     5.799000000
O     4.717000000    -4.675000000     2.143000000
H     5.478000000    -5.241000000     2.012000000
H     5.078000000    -3.790000000     2.173000000
O    -0.377000000    -3.680000000     4.875000000
H     0.315000000    -3.043000000     5.055000000
H    -0.133000000    -4.068000000     4.035000000
O     1.238000000    -4.517000000    -3.248000000
H     1.728000000    -5.340000000    -3.259000000
H     1.588000000    -4.020000000    -3.987000000
O     2.472000000    -3.380000000     4.254000000
H     2.536000000    -3.954000000     5.017000000
H     2.581000000    -3.965000000     3.505000000
O     2.504000000    -4.399000000    -0.786000000
H     1.977000000    -4.252000000    -1.572000000
H     3.259000000    -3.820000000    -0.892000000
O    -0.251000000     1.609000000     5.822000000
H     0.604000000     1.410000000     6.203000000
H    -0.799000000     1.840000000     6.572000000
O    -3.625000000     0.065000000     0.339000000
H    -3.515000000    -0.878000000     0.465000000
H    -2.798000000     0.444000000     0.637000000
O    -3.630000000     6.312000000     0.080000000
H    -2.908000000     5.684000000     0.120000000
H    -3.514000000     6.859000000     0.857000000
O    -2.404000000     6.117000000    -3.332000000
H    -2.671000000     6.976000000    -3.006000000
H    -3.210000000     5.600000000    -3.336000000
O    -3.257000000     2.079000000     4.087000000
H    -3.797000000     2.807000000     4.394000000
H    -2.694000000     2.465000000     3.416000000
