158
-3016.94921
C     0.792000000     0.674000000     1.135000000
H     1.358000000     1.154000000     1.929000000
C     1.404000000    -0.139000000     0.101000000
H     2.413000000    -0.540000000     0.142000000
C     0.579000000    -0.626000000    -0.920000000
H     1.051000000    -1.079000000    -1.780000000
C    -0.809000000    -0.354000000    -0.965000000
H    -1.419000000    -0.774000000    -1.761000000
C    -1.323000000     0.355000000     0.104000000
H    -2.386000000     0.577000000     0.048000000
C    -0.566000000     0.916000000     1.133000000
C    -1.309000000     1.693000000     2.249000000
O    -0.637000000     2.495000000     2.931000000
O    -2.518000000     1.635000000     2.294000000
O    -5.523000000     3.887000000     5.223000000
H    -6.314000000     3.397000000     4.997000000
H    -4.805000000     3.288000000     5.022000000
O    -4.275000000     1.229000000    -3.844000000
H    -3.347000000     1.288000000    -4.073000000
H    -4.391000000     1.875000000    -3.148000000
O    -0.345000000     0.488000000     7.042000000
H    -0.887000000     1.277000000     7.050000000
H     0.013000000     0.435000000     7.928000000
O    -0.144000000    -3.627000000    -4.644000000
H     0.086000000    -2.760000000    -4.978000000
H    -0.636000000    -3.452000000    -3.842000000
O    -0.708000000    -2.417000000     1.704000000
H    -0.074000000    -2.789000000     2.317000000
H    -0.414000000    -1.515000000     1.573000000
O    -4.968000000    -1.178000000    -2.886000000
H    -4.702000000    -0.468000000    -3.470000000
H    -5.316000000    -0.734000000    -2.113000000
O     2.872000000     1.682000000     5.343000000
H     3.006000000     2.630000000     5.344000000
H     1.930000000     1.574000000     5.214000000
O    -2.338000000     4.849000000     3.147000000
H    -2.147000000     4.106000000     2.574000000
H    -2.689000000     4.453000000     3.945000000
O     4.467000000     0.706000000    -0.919000000
H     3.632000000     0.295000000    -1.144000000
H     4.270000000     1.642000000    -0.881000000
O     5.689000000     3.007000000     1.739000000
H     4.950000000     3.344000000     1.232000000
H     5.340000000     2.235000000     2.185000000
O    -3.408000000    -3.504000000     0.438000000
H    -2.457000000    -3.420000000     0.367000000
H    -3.699000000    -2.656000000     0.774000000
O     0.412000000     3.274000000     5.653000000
H     0.742000000     4.163000000     5.526000000
H     0.123000000     3.000000000     4.783000000
O     6.785000000    -2.657000000     0.078000000
H     7.234000000    -3.094000000    -0.645000000
H     6.652000000    -1.760000000    -0.230000000
O     2.691000000     3.255000000     0.184000000
H     2.187000000     3.584000000    -0.560000000
H     2.197000000     3.539000000     0.953000000
O    -1.107000000     6.129000000     0.123000000
H    -0.777000000     7.026000000     0.076000000
H    -1.913000000     6.143000000    -0.393000000
O     2.111000000    -7.171000000     0.182000000
H     1.397000000    -7.749000000     0.451000000
H     1.673000000    -6.388000000    -0.152000000
O     4.752000000    -2.330000000    -5.524000000
H     4.507000000    -2.977000000    -6.185000000
H     5.082000000    -1.586000000    -6.027000000
O    -0.127000000     5.792000000     4.668000000
H    -0.060000000     6.665000000     4.282000000
H    -0.594000000     5.275000000     4.012000000
O     6.668000000    -0.781000000    -1.903000000
H     7.569000000    -0.637000000    -1.614000000
H     6.158000000    -0.119000000    -1.436000000
O     0.006000000    -4.645000000     0.169000000
H    -0.085000000    -3.743000000     0.474000000
H     0.564000000    -4.581000000    -0.606000000
O     4.972000000     0.660000000    -5.256000000
H     4.312000000    -0.033000000    -5.240000000
H     4.468000000     1.470000000    -5.335000000
O     0.557000000     4.824000000     1.819000000
H    -0.129000000     5.167000000     1.247000000
H     0.169000000     4.046000000     2.219000000
O    -5.892000000    -3.699000000    -1.848000000
H    -5.277000000    -3.111000000    -2.287000000
H    -6.549000000    -3.117000000    -1.466000000
O     5.283000000    -2.918000000    -2.802000000
H     5.817000000    -2.139000000    -2.643000000
H     4.985000000    -2.824000000    -3.706000000
O    -2.993000000    -4.885000000    -1.952000000
H    -2.646000000    -5.771000000    -1.846000000
H    -3.486000000    -4.723000000    -1.148000000
O     4.739000000     1.061000000     3.357000000
H     4.802000000     0.160000000     3.039000000
H     4.100000000     1.019000000     4.069000000
O     0.870000000     4.579000000    -1.596000000
H     0.135000000     4.659000000    -2.205000000
H     0.570000000     5.018000000    -0.800000000
O    -5.373000000     4.654000000     0.003000000
H    -6.296000000     4.628000000     0.254000000
H    -4.957000000     3.985000000     0.546000000
O     3.543000000     4.494000000     4.215000000
H     3.182000000     5.335000000     3.936000000
H     4.036000000     4.181000000     3.456000000
O    -2.779000000    -2.891000000    -6.367000000
H    -3.265000000    -2.082000000    -6.208000000
H    -2.228000000    -2.996000000    -5.591000000
O     1.064000000    -0.005000000    -4.113000000
H     1.385000000     0.803000000    -4.515000000
H     0.595000000     0.286000000    -3.331000000
O    -1.683000000     1.501000000    -4.867000000
H    -1.543000000     1.102000000    -5.725000000
H    -0.931000000     2.080000000    -4.746000000
O     0.584000000    -1.549000000    -6.212000000
H     0.528000000    -0.860000000    -6.875000000
H     0.820000000    -1.088000000    -5.407000000
O    -5.340000000     0.651000000    -0.855000000
H    -6.229000000     0.492000000    -0.538000000
H    -4.809000000     0.704000000    -0.060000000
O    -6.540000000     0.634000000     3.096000000
H    -7.320000000     1.053000000     3.459000000
H    -6.328000000    -0.060000000     3.720000000
O    -4.913000000     2.407000000     1.869000000
H    -5.346000000     1.701000000     2.349000000
H    -3.979000000     2.227000000     1.968000000
O     2.056000000     6.773000000     2.684000000
H     1.416000000     7.346000000     3.105000000
H     1.528000000     6.118000000     2.228000000
O     5.221000000    -1.680000000     3.509000000
H     4.962000000    -1.843000000     4.416000000
H     6.172000000    -1.577000000     3.546000000
O     2.856000000    -3.546000000    -1.355000000
H     3.007000000    -3.279000000    -0.449000000
H     3.630000000    -3.237000000    -1.828000000
O     1.813000000    -2.660000000     2.727000000
H     1.737000000    -1.768000000     3.068000000
H     2.675000000    -2.685000000     2.312000000
O     1.095000000    -5.508000000    -2.674000000
H     1.880000000    -5.132000000    -2.274000000
H     0.929000000    -4.957000000    -3.439000000
O     2.002000000    -4.891000000    -6.027000000
H     1.421000000    -4.216000000    -5.678000000
H     2.565000000    -4.425000000    -6.647000000
O    -2.463000000    -2.827000000    -3.440000000
H    -2.642000000    -3.427000000    -2.716000000
H    -3.236000000    -2.265000000    -3.482000000
O     4.142000000    -2.666000000     1.268000000
H     4.483000000    -2.268000000     2.068000000
H     4.916000000    -3.007000000     0.820000000
O     0.358000000    -2.049000000     5.522000000
H    -0.377000000    -2.544000000     5.884000000
H     0.170000000    -1.139000000     5.750000000
O    -3.377000000     2.113000000     4.801000000
H    -3.387000000     1.197000000     5.079000000
H    -2.886000000     2.108000000     3.979000000
O    -4.842000000     3.060000000    -2.003000000
H    -5.173000000     2.402000000    -1.392000000
H    -5.120000000     3.896000000    -1.629000000
O    -3.528000000    -0.783000000     5.252000000
H    -3.038000000    -1.532000000     5.592000000
H    -3.738000000    -1.025000000     4.350000000
