158
-3041.23460
C    -0.546000000    -0.371000000     1.325000000
H    -0.833000000    -0.773000000     2.293000000
C    -0.021000000    -1.305000000     0.393000000
H     0.260000000    -2.334000000     0.601000000
C     0.375000000    -0.816000000    -0.862000000
H     0.757000000    -1.536000000    -1.629000000
C     0.289000000     0.582000000    -1.133000000
H     0.690000000     0.907000000    -2.090000000
C    -0.259000000     1.465000000    -0.232000000
H    -0.298000000     2.499000000    -0.565000000
C    -0.701000000     0.994000000     1.005000000
C    -1.280000000     1.853000000     2.118000000
O    -1.542000000     1.446000000     3.248000000
O    -1.477000000     2.998000000     1.743000000
O     1.168000000     4.230000000     0.813000000
H     0.321000000     3.879000000     1.087000000
H     1.182000000     5.122000000     1.159000000
O     2.856000000     0.082000000    -4.386000000
H     2.581000000    -0.459000000    -5.126000000
H     3.682000000    -0.306000000    -4.099000000
O    -0.551000000    -4.551000000    -6.252000000
H    -1.145000000    -5.177000000    -5.838000000
H     0.025000000    -4.263000000    -5.544000000
O     2.578000000    -2.835000000    -3.251000000
H     2.255000000    -2.358000000    -4.016000000
H     3.531000000    -2.765000000    -3.310000000
O    -3.646000000    -2.787000000     1.310000000
H    -3.520000000    -1.894000000     0.989000000
H    -3.234000000    -2.791000000     2.174000000
O     1.754000000    -1.661000000    -6.193000000
H     0.962000000    -1.250000000    -6.539000000
H     1.992000000    -2.313000000    -6.851000000
O    -1.455000000     3.201000000     5.202000000
H    -1.549000000     2.432000000     4.640000000
H    -0.584000000     3.541000000     4.998000000
O     2.784000000     2.566000000    -3.079000000
H     2.347000000     3.187000000    -3.662000000
H     2.725000000     1.727000000    -3.535000000
O    -1.211000000    -0.831000000    -4.351000000
H    -1.357000000     0.083000000    -4.595000000
H    -1.485000000    -0.881000000    -3.436000000
O     3.687000000     0.656000000     3.664000000
H     2.778000000     0.470000000     3.898000000
H     3.626000000     1.301000000     2.960000000
O    -1.004000000    -4.717000000    -1.143000000
H    -1.722000000    -4.716000000    -0.510000000
H    -0.839000000    -5.644000000    -1.317000000
O    -5.950000000    -0.561000000     2.281000000
H    -5.599000000     0.069000000     2.910000000
H    -5.829000000    -0.143000000     1.429000000
O    -5.411000000     5.429000000     2.279000000
H    -4.686000000     5.025000000     2.757000000
H    -5.963000000     5.812000000     2.961000000
O     1.019000000     0.383000000     3.984000000
H     1.088000000     1.266000000     4.346000000
H     0.150000000     0.355000000     3.585000000
O    -2.480000000    -2.772000000    -5.908000000
H    -1.868000000    -3.507000000    -5.875000000
H    -2.044000000    -2.075000000    -5.418000000
O     2.640000000     4.924000000    -1.662000000
H     1.941000000     5.003000000    -1.012000000
H     2.623000000     4.003000000    -1.921000000
O     5.213000000    -1.321000000     0.947000000
H     4.320000000    -1.002000000     0.814000000
H     5.115000000    -2.267000000     1.057000000
O     3.228000000     3.400000000     2.057000000
H     2.400000000     3.682000000     1.666000000
H     3.755000000     3.104000000     1.314000000
O     2.878000000    -0.268000000     0.422000000
H     3.208000000     0.587000000     0.147000000
H     1.930000000    -0.211000000     0.298000000
O    -2.365000000    -2.366000000     3.696000000
H    -2.531000000    -1.471000000     3.993000000
H    -1.757000000    -2.723000000     4.343000000
O     2.518000000    -6.543000000    -3.011000000
H     1.618000000    -6.248000000    -3.145000000
H     3.032000000    -5.736000000    -2.973000000
O    -1.482000000    -0.820000000     6.597000000
H    -1.443000000    -1.754000000     6.395000000
H    -2.375000000    -0.562000000     6.367000000
O    -0.860000000    -3.277000000     5.802000000
H    -1.205000000    -3.943000000     6.397000000
H     0.079000000    -3.256000000     5.984000000
O     0.590000000     1.624000000    -6.076000000
H     1.214000000     1.128000000    -5.546000000
H     0.269000000     0.994000000    -6.721000000
O    -2.868000000     4.748000000     3.100000000
H    -2.463000000     4.036000000     2.605000000
H    -2.742000000     4.505000000     4.017000000
O     1.695000000    -4.639000000     2.840000000
H     1.990000000    -3.761000000     3.082000000
H     2.435000000    -5.019000000     2.367000000
O    -2.972000000    -2.261000000    -1.653000000
H    -3.792000000    -2.750000000    -1.724000000
H    -2.300000000    -2.935000000    -1.553000000
O    -0.565000000    -5.578000000     1.966000000
H    -0.692000000    -4.682000000     1.653000000
H     0.142000000    -5.509000000     2.608000000
O    -0.509000000     6.181000000    -2.239000000
H    -0.184000000     6.764000000    -1.552000000
H    -1.448000000     6.364000000    -2.284000000
O     5.162000000    -2.033000000    -3.979000000
H     5.632000000    -1.255000000    -3.679000000
H     5.736000000    -2.763000000    -3.749000000
O    -0.732000000     6.501000000     2.062000000
H    -1.513000000     6.036000000     2.363000000
H    -0.181000000     6.573000000     2.841000000
O     0.599000000    -4.375000000    -3.554000000
H     0.020000000    -4.335000000    -2.792000000
H     1.265000000    -3.710000000    -3.383000000
O     2.575000000    -1.934000000     3.377000000
H     3.319000000    -1.788000000     2.793000000
H     2.044000000    -1.142000000     3.291000000
O    -4.837000000     1.504000000     0.604000000
H    -4.813000000     1.586000000     1.557000000
H    -4.348000000     2.262000000     0.285000000
O    -2.761000000     2.993000000     7.640000000
H    -2.888000000     3.924000000     7.820000000
H    -2.496000000     2.961000000     6.721000000
O    -1.892000000     1.724000000    -4.566000000
H    -1.830000000     2.165000000    -3.718000000
H    -1.172000000     2.091000000    -5.079000000
O     1.525000000     0.192000000     6.637000000
H     1.807000000    -0.678000000     6.357000000
H     0.577000000     0.115000000     6.741000000
O     1.710000000    -6.728000000     0.115000000
H     1.228000000    -6.687000000     0.941000000
H     1.089000000    -6.408000000    -0.540000000
O    -3.227000000    -5.440000000     0.230000000
H    -3.405000000    -4.586000000     0.623000000
H    -3.350000000    -6.063000000     0.945000000
O     4.446000000    -4.607000000    -1.541000000
H     3.869000000    -3.846000000    -1.467000000
H     5.320000000    -4.234000000    -1.652000000
O     3.948000000    -5.175000000     1.463000000
H     3.389000000    -5.601000000     0.813000000
H     4.811000000    -5.139000000     1.050000000
O    -3.463000000     3.037000000    -2.372000000
H    -3.110000000     2.187000000    -2.106000000
H    -3.168000000     3.642000000    -1.692000000
O     1.360000000     3.512000000     5.611000000
H     2.013000000     4.126000000     5.275000000
H     1.731000000     3.195000000     6.434000000
O    -2.902000000     0.346000000    -1.819000000
H    -3.034000000    -0.599000000    -1.738000000
H    -2.216000000     0.547000000    -1.182000000
O    -2.977000000     4.074000000     0.052000000
H    -2.440000000     3.588000000     0.678000000
H    -2.870000000     4.991000000     0.307000000
O    -0.143000000     3.890000000    -3.424000000
H     0.029000000     4.173000000    -4.322000000
H    -0.308000000     4.703000000    -2.945000000
O    -4.422000000     1.594000000     3.360000000
H    -4.560000000     1.809000000     4.283000000
H    -3.480000000     1.701000000     3.228000000
O     4.026000000     2.143000000    -0.467000000
H     4.955000000     2.019000000    -0.665000000
H     3.608000000     2.222000000    -1.325000000
