158
-3040.07531
C     0.001000000    -0.212000000     1.496000000
H    -0.045000000    -0.376000000     2.570000000
C     0.389000000    -1.176000000     0.573000000
H     0.672000000    -2.191000000     0.841000000
C     0.477000000    -0.825000000    -0.782000000
H     0.593000000    -1.630000000    -1.418000000
C     0.066000000     0.436000000    -1.168000000
H     0.082000000     0.677000000    -2.228000000
C    -0.359000000     1.381000000    -0.253000000
H    -0.845000000     2.273000000    -0.640000000
C    -0.313000000     1.076000000     1.107000000
C    -1.036000000     2.090000000     2.057000000
O    -0.927000000     2.045000000     3.258000000
O    -1.803000000     2.919000000     1.558000000
O     0.118000000     4.880000000     1.445000000
H    -0.700000000     4.420000000     1.253000000
H    -0.142000000     5.599000000     2.021000000
O    -4.705000000     1.605000000     3.922000000
H    -5.421000000     2.223000000     3.776000000
H    -4.395000000     1.385000000     3.044000000
O     2.016000000    -1.534000000    -5.164000000
H     1.256000000    -1.831000000    -5.666000000
H     2.449000000    -0.902000000    -5.737000000
O    -3.336000000    -3.878000000    -4.572000000
H    -3.504000000    -4.817000000    -4.488000000
H    -2.705000000    -3.685000000    -3.879000000
O     1.581000000    -3.374000000    -3.181000000
H     1.597000000    -2.853000000    -3.984000000
H     2.350000000    -3.081000000    -2.691000000
O    -4.763000000     0.614000000     1.424000000
H    -5.364000000    -0.107000000     1.616000000
H    -4.067000000     0.213000000     0.905000000
O    -0.677000000     4.135000000     4.740000000
H    -0.456000000     3.446000000     4.113000000
H    -0.855000000     4.904000000     4.199000000
O     2.707000000     1.439000000    -0.717000000
H     2.933000000     0.941000000    -1.502000000
H     1.768000000     1.289000000    -0.600000000
O    -1.920000000    -6.277000000    -0.400000000
H    -1.724000000    -7.049000000     0.131000000
H    -1.473000000    -6.438000000    -1.231000000
O     2.641000000     3.933000000    -3.944000000
H     2.649000000     4.704000000    -3.377000000
H     1.712000000     3.728000000    -4.056000000
O    -0.347000000     5.497000000    -1.492000000
H    -0.133000000     4.970000000    -0.722000000
H    -0.495000000     6.377000000    -1.146000000
O    -5.270000000     6.296000000     2.327000000
H    -4.620000000     5.647000000     2.597000000
H    -5.773000000     6.475000000     3.121000000
O     1.394000000     0.760000000     5.027000000
H     1.616000000     1.096000000     5.895000000
H     0.964000000     1.495000000     4.589000000
O    -6.346000000     2.018000000    -0.889000000
H    -5.469000000     2.345000000    -0.690000000
H    -6.256000000     1.065000000    -0.873000000
O     0.070000000     3.108000000    -4.740000000
H    -0.211000000     2.265000000    -5.094000000
H    -0.673000000     3.408000000    -4.217000000
O     3.278000000     4.039000000    -0.403000000
H     3.355000000     4.435000000    -1.271000000
H     3.049000000     3.126000000    -0.575000000
O     2.342000000     3.043000000     3.307000000
H     2.194000000     3.919000000     2.951000000
H     2.171000000     2.454000000     2.572000000
O     4.313000000    -1.434000000     0.165000000
H     4.457000000    -0.680000000     0.736000000
H     4.106000000    -1.053000000    -0.688000000
O    -0.329000000    -6.763000000    -2.870000000
H    -0.740000000    -7.115000000    -3.660000000
H     0.610000000    -6.811000000    -3.047000000
O    -1.519000000    -3.609000000     3.021000000
H    -0.926000000    -3.096000000     3.570000000
H    -2.285000000    -3.762000000     3.575000000
O     5.943000000    -0.317000000    -4.396000000
H     5.231000000     0.318000000    -4.475000000
H     6.739000000     0.197000000    -4.539000000
O     4.704000000    -3.846000000    -2.411000000
H     5.168000000    -3.033000000    -2.211000000
H     5.395000000    -4.461000000    -2.656000000
O    -1.265000000    -0.023000000     7.452000000
H    -0.437000000    -0.411000000     7.169000000
H    -1.603000000     0.414000000     6.671000000
O     4.567000000     2.072000000    -4.544000000
H     3.848000000     2.580000000    -4.168000000
H     5.289000000     2.696000000    -4.616000000
O    -2.401000000    -1.203000000    -5.627000000
H    -2.252000000    -2.103000000    -5.915000000
H    -3.166000000    -1.258000000    -5.054000000
O    -3.009000000     4.878000000     2.692000000
H    -2.611000000     4.053000000     2.413000000
H    -3.055000000     4.811000000     3.646000000
O     3.079000000    -2.532000000     3.004000000
H     3.325000000    -1.955000000     2.281000000
H     3.662000000    -3.286000000     2.918000000
O     2.495000000    -5.131000000     4.865000000
H     3.288000000    -4.937000000     5.365000000
H     2.271000000    -4.303000000     4.440000000
O    -2.808000000    -3.892000000     0.848000000
H    -2.600000000    -4.710000000     0.398000000
H    -2.167000000    -3.840000000     1.558000000
O    -1.357000000    -3.567000000    -6.708000000
H    -1.070000000    -4.365000000    -7.152000000
H    -1.685000000    -3.869000000    -5.861000000
O     0.690000000    -5.930000000     0.892000000
H     0.092000000    -5.204000000     1.071000000
H     1.436000000    -5.523000000     0.453000000
O    -3.532000000     5.777000000    -0.210000000
H    -3.627000000     6.618000000    -0.656000000
H    -3.293000000     6.007000000     0.688000000
O     3.587000000    -0.533000000    -2.750000000
H     4.290000000    -0.181000000    -3.296000000
H     2.938000000    -0.857000000    -3.374000000
O    -0.675000000     6.695000000     3.278000000
H    -1.406000000     7.105000000     2.815000000
H    -0.084000000     7.420000000     3.481000000
O    -1.061000000    -3.942000000    -3.000000000
H    -1.108000000    -4.871000000    -2.776000000
H    -0.147000000    -3.704000000    -2.848000000
O     4.106000000    -0.531000000     5.221000000
H     4.059000000    -0.976000000     6.067000000
H     3.197000000    -0.476000000     4.928000000
O    -3.575000000     0.963000000    -1.920000000
H    -3.249000000     0.276000000    -1.339000000
H    -3.582000000     1.752000000    -1.378000000
O    -2.663000000     4.488000000     7.035000000
H    -3.393000000     4.578000000     6.423000000
H    -2.020000000     3.957000000     6.565000000
O     0.713000000     3.888000000     6.752000000
H     0.188000000     4.217000000     6.023000000
H     1.554000000     4.336000000     6.664000000
O    -1.630000000     1.236000000    -5.907000000
H    -2.476000000     1.646000000    -6.090000000
H    -1.820000000     0.298000000    -5.881000000
O     0.621000000    -2.130000000     4.272000000
H     0.816000000    -1.196000000     4.357000000
H     1.317000000    -2.469000000     3.710000000
O     1.677000000    -5.663000000    -5.152000000
H     2.058000000    -6.197000000    -4.454000000
H     1.703000000    -4.769000000    -4.811000000
O     2.517000000    -4.028000000    -0.417000000
H     3.021000000    -4.235000000    -1.204000000
H     3.079000000    -3.429000000     0.076000000
O    -2.823000000    -0.994000000     0.155000000
H    -2.929000000    -1.942000000     0.236000000
H    -1.875000000    -0.861000000     0.121000000
O    -3.656000000     3.085000000    -0.364000000
H    -3.168000000     2.995000000     0.454000000
H    -3.691000000     4.029000000    -0.520000000
O    -1.971000000     4.249000000    -3.218000000
H    -1.591000000     4.833000000    -2.561000000
H    -2.902000000     4.470000000    -3.225000000
O    -2.128000000     1.626000000     5.457000000
H    -3.002000000     1.613000000     5.068000000
H    -1.556000000     1.929000000     4.752000000
O     4.664000000     1.113000000     1.001000000
H     5.366000000     1.315000000     0.382000000
H     3.902000000     1.582000000     0.660000000
