158
-3036.29556
C    -0.008000000    -0.498000000     1.354000000
H     0.037000000    -1.113000000     2.249000000
C     0.178000000    -1.268000000     0.199000000
H     0.272000000    -2.351000000     0.200000000
C     0.230000000    -0.618000000    -1.035000000
H     0.574000000    -1.182000000    -1.930000000
C    -0.074000000     0.708000000    -1.136000000
H    -0.157000000     1.118000000    -2.139000000
C    -0.264000000     1.495000000     0.017000000
H    -0.540000000     2.545000000    -0.048000000
C    -0.126000000     0.903000000     1.320000000
C    -0.452000000     1.693000000     2.585000000
O    -0.078000000     1.320000000     3.677000000
O    -1.273000000     2.580000000     2.601000000
O     1.745000000     5.174000000     1.924000000
H     1.414000000     6.062000000     2.055000000
H     2.644000000     5.203000000     2.251000000
O     3.963000000     1.137000000    -4.389000000
H     4.051000000     0.684000000    -5.228000000
H     3.836000000     0.435000000    -3.750000000
O     4.745000000    -2.616000000    -3.190000000
H     3.905000000    -2.464000000    -3.624000000
H     4.983000000    -1.764000000    -2.825000000
O    -4.034000000    -2.941000000     1.108000000
H    -3.465000000    -2.542000000     0.450000000
H    -3.519000000    -2.920000000     1.914000000
O     2.556000000    -1.911000000    -4.960000000
H     1.655000000    -1.841000000    -4.647000000
H     2.487000000    -1.823000000    -5.911000000
O    -2.340000000     0.616000000     5.205000000
H    -1.745000000     1.105000000     4.636000000
H    -2.831000000     1.291000000     5.674000000
O    -4.712000000     0.473000000    -2.462000000
H    -3.995000000     0.049000000    -1.991000000
H    -4.918000000    -0.130000000    -3.177000000
O     1.860000000     2.285000000    -3.265000000
H     1.125000000     2.225000000    -3.875000000
H     2.560000000     1.782000000    -3.682000000
O     0.141000000    -2.167000000    -4.187000000
H    -0.219000000    -1.281000000    -4.232000000
H    -0.559000000    -2.728000000    -4.520000000
O     2.213000000     2.445000000     3.910000000
H     1.389000000     1.984000000     3.751000000
H     2.636000000     2.484000000     3.052000000
O    -3.276000000    -5.214000000    -0.386000000
H    -3.390000000    -4.703000000     0.416000000
H    -3.122000000    -6.108000000    -0.081000000
O    -0.927000000    -7.424000000    -0.231000000
H    -0.400000000    -8.144000000     0.116000000
H    -0.328000000    -6.678000000    -0.252000000
O    -3.261000000     6.905000000     3.355000000
H    -2.414000000     6.477000000     3.479000000
H    -3.506000000     7.211000000     4.228000000
O     1.228000000    -0.752000000     4.845000000
H     1.070000000    -0.537000000     5.764000000
H     0.804000000    -0.046000000     4.357000000
O    -3.868000000    -0.739000000    -5.718000000
H    -3.112000000    -0.291000000    -5.338000000
H    -4.607000000    -0.157000000    -5.539000000
O    -1.780000000    -3.593000000    -5.309000000
H    -2.050000000    -4.459000000    -5.612000000
H    -1.870000000    -3.031000000    -6.079000000
O     2.596000000     4.917000000    -2.436000000
H     2.642000000     5.350000000    -3.289000000
H     2.330000000     4.020000000    -2.637000000
O     2.619000000     2.653000000     1.163000000
H     2.366000000     3.576000000     1.141000000
H     2.944000000     2.472000000     0.281000000
O     2.924000000    -0.085000000     0.803000000
H     2.757000000     0.820000000     0.537000000
H     2.196000000    -0.582000000     0.430000000
O    -2.807000000    -1.856000000     3.606000000
H    -2.236000000    -1.218000000     4.035000000
H    -2.919000000    -2.551000000     4.254000000
O     2.712000000     4.708000000     5.766000000
H     3.438000000     4.737000000     5.143000000
H     2.111000000     4.057000000     5.403000000
O     2.004000000    -4.689000000    -4.497000000
H     1.267000000    -4.078000000    -4.538000000
H     2.197000000    -4.768000000    -3.562000000
O    -2.249000000    -1.054000000     7.775000000
H    -2.844000000    -0.707000000     8.441000000
H    -2.494000000    -0.593000000     6.973000000
O    -2.573000000    -3.706000000     5.455000000
H    -2.768000000    -4.016000000     6.339000000
H    -1.655000000    -3.436000000     5.494000000
O     0.358000000     1.603000000    -5.451000000
H    -0.466000000     1.940000000    -5.804000000
H     1.023000000     1.895000000    -6.074000000
O    -0.918000000     5.012000000     3.403000000
H    -1.011000000     4.132000000     3.039000000
H     0.028000000     5.145000000     3.469000000
O     1.323000000    -3.599000000     2.656000000
H     1.931000000    -2.995000000     3.083000000
H     1.868000000    -4.098000000     2.048000000
O    -2.648000000    -3.383000000    -2.417000000
H    -2.500000000    -3.643000000    -3.326000000
H    -2.779000000    -4.208000000    -1.950000000
O     3.952000000     1.568000000     6.168000000
H     4.707000000     1.123000000     5.784000000
H     3.416000000     1.821000000     5.416000000
O    -0.299000000    -5.756000000     3.063000000
H    -1.163000000    -5.474000000     2.764000000
H     0.238000000    -4.965000000     3.026000000
O     5.007000000    -0.047000000    -2.187000000
H     4.544000000     0.643000000    -1.711000000
H     5.770000000     0.393000000    -2.563000000
O    -1.451000000     7.152000000     5.392000000
H    -1.296000000     6.245000000     5.126000000
H    -1.442000000     7.126000000     6.348000000
O     0.254000000    -5.017000000    -0.493000000
H     1.095000000    -5.006000000    -0.036000000
H     0.291000000    -4.263000000    -1.081000000
O     3.421000000    -1.753000000     3.459000000
H     3.583000000    -1.169000000     2.718000000
H     2.980000000    -1.202000000     4.106000000
O    -3.985000000     3.021000000     6.094000000
H    -4.408000000     3.861000000     6.274000000
H    -3.292000000     3.231000000     5.469000000
O    -5.470000000     2.042000000     2.345000000
H    -5.773000000     1.501000000     3.075000000
H    -5.126000000     2.833000000     2.760000000
O     0.042000000    -3.130000000     5.924000000
H     0.371000000    -2.528000000     5.256000000
H     0.733000000    -3.153000000     6.586000000
O    -1.971000000     0.754000000    -4.204000000
H    -2.404000000     1.176000000    -3.462000000
H    -1.036000000     0.860000000    -4.028000000
O     0.565000000    -0.771000000     7.785000000
H     0.862000000    -1.592000000     8.178000000
H    -0.369000000    -0.904000000     7.628000000
O    -2.524000000     4.242000000    -1.956000000
H    -2.875000000     3.795000000    -1.186000000
H    -3.188000000     4.896000000    -2.176000000
O     2.981000000    -4.262000000    -1.893000000
H     3.672000000    -3.662000000    -2.174000000
H     3.436000000    -5.087000000    -1.722000000
O     2.602000000    -5.493000000     1.157000000
H     2.314000000    -6.361000000     1.438000000
H     3.554000000    -5.513000000     1.254000000
O    -3.354000000     2.855000000     0.720000000
H    -3.969000000     2.286000000     1.183000000
H    -2.586000000     2.892000000     1.290000000
O    -1.217000000     2.353000000     7.388000000
H    -0.553000000     2.868000000     6.929000000
H    -0.873000000     1.460000000     7.382000000
O    -3.030000000    -1.097000000    -1.114000000
H    -2.936000000    -1.940000000    -1.558000000
H    -2.131000000    -0.800000000    -0.973000000
O    -4.015000000     4.189000000     3.346000000
H    -3.103000000     3.910000000     3.274000000
H    -3.973000000     5.146000000     3.349000000
O    -1.384000000     3.780000000    -4.346000000
H    -1.041000000     4.650000000    -4.550000000
H    -1.893000000     3.905000000    -3.545000000
O     3.863000000     2.309000000    -1.160000000
H     4.361000000     3.127000000    -1.133000000
H     3.168000000     2.473000000    -1.796000000
