158
-3002.95368
C    -0.420000000     0.180000000     1.477000000
H    -0.502000000     0.178000000     2.561000000
C    -0.151000000    -1.051000000     0.841000000
H    -0.209000000    -1.959000000     1.436000000
C     0.204000000    -1.077000000    -0.537000000
H     0.329000000    -2.030000000    -1.031000000
C     0.194000000     0.079000000    -1.214000000
H     0.382000000    -0.015000000    -2.281000000
C     0.045000000     1.295000000    -0.584000000
H     0.093000000     2.164000000    -1.235000000
C    -0.213000000     1.365000000     0.806000000
C    -0.444000000     2.661000000     1.393000000
O    -0.162000000     2.851000000     2.506000000
O    -0.746000000     3.611000000     0.737000000
O     0.483000000     5.784000000     0.252000000
H     0.045000000     5.018000000     0.624000000
H     0.443000000     6.442000000     0.946000000
O    -3.943000000     3.169000000     6.048000000
H    -3.187000000     2.858000000     5.549000000
H    -3.869000000     4.123000000     6.025000000
O     2.937000000    -0.237000000    -4.503000000
H     2.321000000    -0.938000000    -4.291000000
H     3.633000000    -0.324000000    -3.851000000
O    -3.411000000    -4.288000000    -1.582000000
H    -3.588000000    -5.227000000    -1.523000000
H    -4.262000000    -3.874000000    -1.439000000
O     5.474000000    -2.751000000    -3.100000000
H     6.217000000    -3.143000000    -3.558000000
H     5.641000000    -1.809000000    -3.134000000
O    -4.490000000     1.557000000    -0.794000000
H    -5.398000000     1.641000000    -0.505000000
H    -4.333000000     0.613000000    -0.820000000
O    -0.486000000     5.499000000     3.781000000
H    -0.317000000     4.643000000     3.387000000
H     0.103000000     6.096000000     3.320000000
O     2.805000000     1.412000000     1.143000000
H     2.666000000     0.676000000     0.547000000
H     2.256000000     1.213000000     1.901000000
O     1.431000000    -6.350000000    -0.981000000
H     0.993000000    -6.929000000    -1.605000000
H     1.890000000    -5.712000000    -1.527000000
O    -1.869000000     0.927000000    -4.179000000
H    -0.948000000     0.968000000    -4.435000000
H    -1.922000000     1.463000000    -3.388000000
O    -2.598000000    -3.478000000     1.199000000
H    -1.949000000    -3.986000000     1.686000000
H    -2.559000000    -3.829000000     0.310000000
O     2.326000000     5.434000000    -1.657000000
H     1.745000000     5.472000000    -0.898000000
H     1.739000000     5.303000000    -2.402000000
O     0.299000000     8.147000000    -1.279000000
H     0.345000000     7.324000000    -0.793000000
H    -0.562000000     8.506000000    -1.062000000
O     1.913000000     1.833000000     4.313000000
H     1.454000000     1.968000000     5.143000000
H     1.445000000     2.387000000     3.688000000
O    -4.768000000     4.309000000    -0.754000000
H    -4.194000000     4.560000000    -0.031000000
H    -4.667000000     3.359000000    -0.823000000
O     3.839000000     2.272000000    -4.490000000
H     3.223000000     2.509000000    -3.796000000
H     3.640000000     1.356000000    -4.685000000
O    -2.384000000    -2.137000000    -6.188000000
H    -2.765000000    -2.423000000    -5.358000000
H    -2.222000000    -1.201000000    -6.067000000
O     1.179000000     3.612000000    -3.817000000
H     1.035000000     3.042000000    -4.572000000
H     0.616000000     4.370000000    -3.978000000
O     2.994000000     3.989000000     1.199000000
H     3.109000000     3.041000000     1.135000000
H     2.130000000     4.151000000     0.819000000
O     3.546000000    -1.321000000    -0.346000000
H     3.855000000    -0.566000000    -0.847000000
H     4.232000000    -1.474000000     0.304000000
O     0.405000000    -5.113000000    -3.936000000
H    -0.200000000    -5.828000000    -3.737000000
H     1.081000000    -5.176000000    -3.261000000
O    -1.427000000    -4.761000000     4.410000000
H    -2.100000000    -5.150000000     4.968000000
H    -0.618000000    -5.203000000     4.666000000
O     4.405000000    -6.684000000     0.669000000
H     4.518000000    -6.477000000     1.597000000
H     4.223000000    -5.841000000     0.256000000
O    -0.924000000     0.009000000     6.768000000
H    -0.749000000     0.705000000     7.401000000
H    -1.361000000     0.451000000     6.040000000
O    -1.436000000    -5.936000000     1.775000000
H    -1.466000000    -6.039000000     2.726000000
H    -0.797000000    -6.586000000     1.484000000
O     5.048000000     3.478000000    -1.143000000
H     4.256000000     3.932000000    -0.854000000
H     5.450000000     4.076000000    -1.773000000
O    -2.875000000    -2.756000000    -3.569000000
H    -2.728000000    -3.333000000    -2.819000000
H    -3.008000000    -1.890000000    -3.182000000
O    -3.227000000     6.568000000     3.930000000
H    -2.390000000     6.145000000     3.738000000
H    -3.370000000     6.403000000     4.862000000
O     2.815000000    -1.444000000     2.745000000
H     2.675000000    -1.964000000     1.953000000
H     3.650000000    -1.757000000     3.092000000
O     1.416000000    -4.965000000     4.236000000
H     1.346000000    -4.050000000     4.508000000
H     1.191000000    -4.956000000     3.306000000
O    -3.642000000    -3.179000000     3.701000000
H    -3.570000000    -3.113000000     2.748000000
H    -2.948000000    -3.789000000     3.951000000
O    -0.102000000    -4.434000000    -6.522000000
H     0.246000000    -4.686000000    -5.667000000
H    -0.661000000    -3.679000000    -6.340000000
O     4.034000000     0.341000000     4.972000000
H     3.295000000     0.865000000     4.662000000
H     4.427000000    -0.014000000     4.174000000
O     1.352000000    -4.787000000     1.376000000
H     2.216000000    -4.404000000     1.221000000
H     1.023000000    -4.998000000     0.503000000
O     4.742000000     0.808000000    -1.666000000
H     4.847000000     1.753000000    -1.551000000
H     5.156000000     0.622000000    -2.508000000
O     0.833000000     7.445000000     2.427000000
H     0.389000000     8.287000000     2.330000000
H     1.734000000     7.674000000     2.654000000
O     1.248000000    -2.228000000    -3.589000000
H     1.013000000    -3.114000000    -3.864000000
H     0.933000000    -2.166000000    -2.687000000
O     3.749000000     3.648000000     5.247000000
H     3.278000000     3.077000000     4.640000000
H     3.611000000     4.530000000     4.902000000
O    -2.234000000     3.192000000    -2.082000000
H    -1.948000000     3.033000000    -1.183000000
H    -3.111000000     3.564000000    -1.991000000
O     0.750000000     1.261000000    -5.251000000
H     0.605000000     1.182000000    -6.194000000
H     1.462000000     0.648000000    -5.066000000
O     1.363000000    -2.054000000     5.205000000
H     0.566000000    -1.542000000     5.342000000
H     1.840000000    -1.578000000     4.525000000
O     2.933000000    -4.686000000    -3.177000000
H     3.269000000    -5.356000000    -3.772000000
H     3.521000000    -3.941000000    -3.299000000
O     4.070000000    -4.287000000    -0.320000000
H     4.460000000    -4.584000000    -1.143000000
H     4.285000000    -3.356000000    -0.276000000
O     1.107000000     3.342000000     6.540000000
H     1.669000000     3.960000000     7.008000000
H     0.429000000     3.108000000     7.173000000
O    -3.186000000    -0.825000000     0.044000000
H    -3.066000000    -1.772000000     0.112000000
H    -2.300000000    -0.466000000     0.101000000
O    -2.732000000     5.316000000     0.767000000
H    -2.005000000     4.697000000     0.835000000
H    -2.352000000     6.084000000     0.339000000
O    -1.135000000     5.457000000    -3.166000000
H    -1.624000000     6.176000000    -2.767000000
H    -1.272000000     4.717000000    -2.574000000
O    -2.060000000     1.598000000     4.317000000
H    -2.652000000     1.381000000     3.597000000
H    -1.306000000     2.008000000     3.892000000
