158
-3026.43659
C     1.271000000    -0.602000000     0.230000000
H     2.317000000    -0.844000000     0.397000000
C     0.991000000     0.743000000     0.319000000
H     1.821000000     1.444000000     0.325000000
C    -0.266000000     1.202000000     0.114000000
H    -0.447000000     2.154000000     0.239000000
C    -1.232000000     0.255000000    -0.153000000
H    -2.255000000     0.622000000    -0.180000000
C    -0.942000000    -1.037000000    -0.410000000
H    -1.750000000    -1.689000000    -0.734000000
C     0.298000000    -1.543000000    -0.138000000
C     0.631000000    -2.999000000    -0.392000000
O    -0.129000000    -3.929000000    -0.702000000
O     1.800000000    -3.282000000    -0.292000000
O    -3.424000000    -6.260000000    -2.599000000
H    -2.756000000    -6.929000000    -2.451000000
H    -3.648000000    -5.947000000    -1.722000000
O     1.711000000     4.568000000    -2.057000000
H     0.771000000     4.451000000    -1.920000000
H     1.896000000     4.089000000    -2.865000000
O     4.158000000     0.762000000    -2.167000000
H     4.407000000     1.081000000    -1.300000000
H     3.813000000    -0.117000000    -2.010000000
O    -2.991000000     4.794000000    -0.783000000
H    -3.643000000     4.283000000    -0.304000000
H    -3.488000000     5.518000000    -1.166000000
O     3.421000000    -3.027000000     2.096000000
H     3.095000000    -2.827000000     1.218000000
H     2.910000000    -3.787000000     2.374000000
O    -0.773000000    -2.502000000    -3.083000000
H    -0.395000000    -2.905000000    -3.865000000
H    -0.414000000    -3.010000000    -2.355000000
O    -1.312000000     1.720000000     4.829000000
H    -0.480000000     2.079000000     4.519000000
H    -1.624000000     1.181000000     4.102000000
O    -2.207000000    -3.801000000     2.414000000
H    -2.017000000    -4.681000000     2.741000000
H    -2.100000000    -3.234000000     3.178000000
O     1.636000000     5.649000000     5.008000000
H     1.536000000     5.812000000     5.946000000
H     0.760000000     5.400000000     4.713000000
O    -1.521000000     0.896000000    -3.045000000
H    -1.236000000     0.602000000    -2.180000000
H    -1.909000000     0.119000000    -3.446000000
O    -4.353000000    -6.369000000     1.243000000
H    -5.180000000    -5.909000000     1.104000000
H    -3.732000000    -5.927000000     0.665000000
O    -4.205000000     0.660000000    -3.665000000
H    -4.736000000    -0.136000000    -3.689000000
H    -3.554000000     0.535000000    -4.355000000
O     2.973000000    -0.480000000     3.013000000
H     3.157000000    -1.341000000     2.636000000
H     3.400000000     0.137000000     2.418000000
O     4.395000000    -2.755000000    -4.630000000
H     4.155000000    -2.667000000    -3.708000000
H     3.609000000    -2.493000000    -5.109000000
O    -1.804000000     0.059000000     2.740000000
H    -2.700000000     0.000000000     2.406000000
H    -1.261000000     0.130000000     1.955000000
O    -4.506000000     1.508000000    -0.959000000
H    -5.071000000     2.033000000    -1.525000000
H    -3.901000000     1.074000000    -1.561000000
O     3.359000000    -1.739000000    -1.959000000
H     2.863000000    -2.214000000    -1.292000000
H     2.723000000    -1.566000000    -2.653000000
O    -3.798000000     4.640000000     3.015000000
H    -4.330000000     4.651000000     2.220000000
H    -4.210000000     3.978000000     3.570000000
O    -5.416000000     4.222000000     0.480000000
H    -5.897000000     4.722000000    -0.179000000
H    -5.907000000     3.405000000     0.566000000
O    -2.649000000    -1.295000000    -4.857000000
H    -2.330000000    -1.786000000    -4.099000000
H    -3.382000000    -1.815000000    -5.188000000
O    -1.249000000     3.677000000    -2.595000000
H    -1.822000000     4.136000000    -1.981000000
H    -1.738000000     2.890000000    -2.838000000
O     1.045000000     2.595000000     3.912000000
H     1.174000000     2.379000000     4.835000000
H     1.791000000     3.153000000     3.690000000
O     5.241000000     0.740000000     1.723000000
H     5.418000000     1.280000000     0.953000000
H     5.950000000     0.097000000     1.732000000
O    -1.737000000     7.537000000    -0.846000000
H    -1.558000000     6.597000000    -0.805000000
H    -1.863000000     7.716000000    -1.778000000
O     1.010000000    -0.665000000     4.776000000
H     0.549000000     0.171000000     4.701000000
H     1.615000000    -0.673000000     4.034000000
O    -1.003000000     4.943000000     3.739000000
H    -1.947000000     4.846000000     3.616000000
H    -0.639000000     4.098000000     3.475000000
O     0.520000000    -4.446000000    -4.960000000
H     1.107000000    -3.896000000    -5.480000000
H     1.045000000    -4.710000000    -4.205000000
O     2.745000000     2.552000000    -3.758000000
H     2.010000000     2.263000000    -4.298000000
H     3.042000000     1.759000000    -3.312000000
O     0.625000000    -8.908000000     0.725000000
H     1.349000000    -9.113000000     1.316000000
H     0.570000000    -7.952000000     0.736000000
O     6.798000000    -1.084000000    -1.535000000
H     7.355000000    -0.564000000    -2.114000000
H     5.906000000    -0.813000000    -1.754000000
O    -2.542000000    -1.782000000     4.507000000
H    -2.519000000    -1.209000000     5.273000000
H    -2.278000000    -1.219000000     3.779000000
O     2.399000000    -4.720000000    -3.104000000
H     3.202000000    -5.168000000    -3.372000000
H     2.597000000    -4.373000000    -2.234000000
O     0.812000000    -7.172000000    -2.868000000
H     1.463000000    -6.914000000    -3.520000000
H     0.351000000    -6.360000000    -2.656000000
O     5.123000000    -3.287000000     4.226000000
H     4.734000000    -2.842000000     3.473000000
H     5.339000000    -4.161000000     3.902000000
O    -4.076000000    -2.770000000    -1.769000000
H    -3.886000000    -3.031000000    -2.670000000
H    -3.507000000    -3.323000000    -1.234000000
O     0.461000000    -6.173000000     0.574000000
H     0.538000000    -5.417000000    -0.009000000
H    -0.282000000    -5.963000000     1.140000000
O     4.673000000     4.705000000    -1.507000000
H     4.801000000     5.494000000    -0.980000000
H     3.723000000     4.622000000    -1.588000000
O    -2.739000000    -4.507000000    -0.184000000
H    -1.858000000    -4.343000000    -0.519000000
H    -2.733000000    -4.135000000     0.699000000
O    -1.173000000     4.829000000    -5.290000000
H    -1.112000000     4.670000000    -4.348000000
H    -1.042000000     3.968000000    -5.687000000
O     0.838000000     7.127000000    -2.617000000
H     1.003000000     6.185000000    -2.659000000
H     1.179000000     7.393000000    -1.763000000
O    -5.021000000    -2.271000000     1.973000000
H    -4.845000000    -1.486000000     1.454000000
H    -4.202000000    -2.766000000     1.943000000
O     1.673000000    -5.249000000     3.458000000
H     0.731000000    -5.179000000     3.612000000
H     1.862000000    -6.182000000     3.549000000
O     1.964000000    -1.092000000    -4.319000000
H     2.486000000    -0.601000000    -4.953000000
H     1.159000000    -0.584000000    -4.226000000
O     6.439000000    -5.031000000    -0.077000000
H     5.507000000    -4.827000000    -0.002000000
H     6.664000000    -4.798000000    -0.978000000
O    -6.735000000    -1.454000000    -1.926000000
H    -6.914000000    -1.734000000    -2.823000000
H    -5.853000000    -1.781000000    -1.744000000
O    -4.309000000     0.278000000     1.345000000
H    -5.001000000     0.449000000     1.984000000
H    -4.552000000     0.803000000     0.582000000
O     5.882000000     2.295000000    -0.459000000
H     5.466000000     3.047000000    -0.879000000
H     6.821000000     2.447000000    -0.570000000
O     3.624000000    -5.140000000    -0.127000000
H     3.419000000    -5.857000000     0.473000000
H     2.802000000    -4.658000000    -0.214000000
