158
-3045.76113
C     0.263000000     0.519000000     1.322000000
H     0.527000000     0.724000000     2.357000000
C     1.050000000    -0.438000000     0.700000000
H     1.813000000    -0.947000000     1.283000000
C     0.712000000    -0.773000000    -0.615000000
H     1.193000000    -1.696000000    -1.048000000
C    -0.336000000    -0.143000000    -1.259000000
H    -0.515000000    -0.477000000    -2.278000000
C    -1.064000000     0.856000000    -0.626000000
H    -1.863000000     1.409000000    -1.113000000
C    -0.771000000     1.147000000     0.697000000
C    -1.631000000     2.105000000     1.493000000
O    -1.506000000     2.114000000     2.700000000
O    -2.395000000     2.849000000     0.934000000
O    -2.844000000     6.427000000     1.889000000
H    -2.985000000     5.656000000     2.439000000
H    -2.284000000     6.114000000     1.178000000
O    -4.800000000     1.799000000     6.319000000
H    -4.104000000     1.189000000     6.563000000
H    -5.156000000     2.102000000     7.155000000
O    -2.032000000     1.121000000    -3.683000000
H    -1.282000000     1.497000000    -4.144000000
H    -2.389000000     1.850000000    -3.175000000
O    -3.089000000     4.324000000    -5.378000000
H    -2.183000000     4.623000000    -5.451000000
H    -3.182000000     4.063000000    -4.461000000
O     0.912000000    -3.707000000    -3.057000000
H     1.202000000    -2.952000000    -2.544000000
H     0.008000000    -3.502000000    -3.294000000
O    -1.889000000    -1.349000000     2.700000000
H    -1.578000000    -1.689000000     3.539000000
H    -1.425000000    -0.519000000     2.591000000
O    -3.354000000    -1.339000000    -3.136000000
H    -2.971000000    -0.483000000    -3.328000000
H    -4.284000000    -1.237000000    -3.341000000
O     2.944000000     3.124000000     4.100000000
H     3.087000000     4.068000000     4.158000000
H     2.055000000     2.996000000     4.430000000
O    -3.598000000     4.062000000     3.545000000
H    -3.171000000     3.459000000     2.936000000
H    -4.443000000     3.654000000     3.734000000
O     3.734000000     0.776000000    -0.106000000
H     2.847000000     0.574000000     0.193000000
H     4.187000000     1.086000000     0.678000000
O    -3.293000000    -1.734000000    -0.389000000
H    -3.244000000    -1.733000000    -1.345000000
H    -2.482000000    -1.311000000    -0.107000000
O    -0.341000000     4.520000000     3.085000000
H    -0.569000000     4.702000000     3.996000000
H    -0.613000000     3.613000000     2.947000000
O    -2.442000000    -0.889000000    -6.236000000
H    -3.344000000    -0.575000000    -6.171000000
H    -1.981000000    -0.443000000    -5.526000000
O     3.100000000     4.648000000    -0.415000000
H     2.271000000     4.391000000    -0.819000000
H     2.916000000     5.496000000    -0.011000000
O     0.262000000     5.750000000    -1.992000000
H    -0.080000000     5.783000000    -1.099000000
H     0.479000000     4.829000000    -2.132000000
O     4.781000000    -3.881000000    -4.164000000
H     5.655000000    -4.207000000    -4.380000000
H     4.187000000    -4.434000000    -4.672000000
O    -1.377000000     4.740000000     5.582000000
H    -1.854000000     5.087000000     4.828000000
H    -1.835000000     3.929000000     5.803000000
O     7.564000000    -0.578000000    -0.787000000
H     6.681000000    -0.452000000    -1.136000000
H     8.067000000     0.157000000    -1.138000000
O    -1.716000000    -4.158000000     1.424000000
H    -1.847000000    -3.257000000     1.718000000
H    -2.595000000    -4.474000000     1.218000000
O     5.273000000     0.237000000    -2.259000000
H     4.689000000     0.495000000    -1.546000000
H     4.835000000     0.547000000    -3.051000000
O    -0.657000000     5.088000000     0.626000000
H    -0.430000000     4.865000000     1.528000000
H    -1.242000000     4.384000000     0.345000000
O     3.687000000    -2.342000000    -1.883000000
H     4.142000000    -1.500000000    -1.908000000
H     4.205000000    -2.911000000    -2.452000000
O    -0.743000000    -1.536000000     5.183000000
H    -0.585000000    -1.947000000     6.033000000
H     0.090000000    -1.619000000     4.719000000
O     4.357000000     1.502000000     2.425000000
H     4.842000000     0.982000000     3.066000000
H     3.647000000     1.901000000     2.928000000
O    -0.941000000    -7.087000000     0.391000000
H    -1.223000000    -6.233000000     0.718000000
H    -0.041000000    -7.178000000     0.704000000
O     0.837000000     3.007000000    -2.020000000
H     0.547000000     2.354000000    -1.382000000
H     0.128000000     3.045000000    -2.662000000
O    -6.125000000     5.256000000     0.092000000
H    -6.929000000     4.840000000    -0.219000000
H    -5.604000000     4.536000000     0.447000000
O     3.414000000    -6.707000000    -1.430000000
H     2.963000000    -6.412000000    -2.221000000
H     3.171000000    -6.066000000    -0.762000000
O     4.246000000    -4.114000000     4.528000000
H     3.986000000    -3.728000000     3.692000000
H     4.858000000    -4.810000000     4.291000000
O     1.073000000     3.295000000     5.913000000
H     1.086000000     2.571000000     6.538000000
H     0.143000000     3.485000000     5.786000000
O     2.182000000    -0.906000000    -4.121000000
H     2.731000000    -0.196000000    -3.787000000
H     2.360000000    -1.642000000    -3.536000000
O    -0.054000000     0.778000000    -5.550000000
H     0.717000000     0.669000000    -4.993000000
H     0.172000000     0.327000000    -6.364000000
O     2.547000000    -1.759000000    -6.550000000
H     2.209000000    -0.973000000    -6.978000000
H     2.321000000    -1.646000000    -5.627000000
O    -5.511000000     2.590000000    -1.700000000
H    -6.182000000     1.918000000    -1.823000000
H    -5.385000000     2.632000000    -0.752000000
O    -5.478000000     1.883000000     3.328000000
H    -5.573000000     1.656000000     4.253000000
H    -5.729000000     1.088000000     2.859000000
O    -4.943000000     2.903000000     0.806000000
H    -5.135000000     2.786000000     1.737000000
H    -3.990000000     2.979000000     0.767000000
O     3.012000000    -4.313000000     0.094000000
H     3.780000000    -4.251000000     0.662000000
H     3.217000000    -3.747000000    -0.650000000
O     0.058000000     3.511000000    -5.651000000
H     0.655000000     3.488000000    -6.398000000
H    -0.011000000     2.599000000    -5.370000000
O     1.920000000    -1.687000000     4.164000000
H     2.377000000    -1.224000000     4.866000000
H     2.574000000    -2.288000000     3.808000000
O     1.061000000    -4.933000000     2.240000000
H     1.768000000    -4.613000000     1.679000000
H     0.259000000    -4.685000000     1.780000000
O     2.299000000    -5.833000000    -3.838000000
H     1.803000000    -5.052000000    -3.592000000
H     2.576000000    -5.667000000    -4.739000000
O    -3.554000000     5.424000000    -1.196000000
H    -4.386000000     5.627000000    -0.769000000
H    -3.176000000     6.279000000    -1.401000000
O    -1.615000000    -3.407000000    -3.849000000
H    -2.138000000    -3.974000000    -3.283000000
H    -2.177000000    -2.651000000    -4.017000000
O     4.115000000    -2.594000000     2.320000000
H     3.786000000    -1.842000000     1.827000000
H     4.965000000    -2.308000000     2.654000000
O    -1.641000000     2.128000000     5.314000000
H    -2.174000000     1.403000000     5.640000000
H    -1.457000000     1.898000000     4.403000000
O    -6.003000000    -1.078000000    -0.407000000
H    -6.202000000    -1.105000000    -1.343000000
H    -5.065000000    -1.260000000    -0.356000000
O    -3.099000000     3.465000000    -2.734000000
H    -3.948000000     3.044000000    -2.603000000
H    -3.078000000     4.168000000    -2.084000000
O    -3.227000000    -0.729000000     5.927000000
H    -2.456000000    -0.897000000     5.385000000
H    -3.903000000    -1.303000000     5.566000000
