158
-3022.90163
C     0.505000000     1.016000000     1.012000000
H     1.024000000     1.676000000     1.702000000
C     1.063000000    -0.250000000     0.745000000
H     2.011000000    -0.498000000     1.215000000
C     0.524000000    -1.070000000    -0.272000000
H     1.090000000    -1.986000000    -0.611000000
C    -0.539000000    -0.641000000    -1.011000000
H    -0.856000000    -1.289000000    -1.825000000
C    -1.156000000     0.550000000    -0.667000000
H    -1.959000000     0.958000000    -1.276000000
C    -0.664000000     1.352000000     0.367000000
C    -1.336000000     2.709000000     0.548000000
O    -0.806000000     3.531000000     1.234000000
O    -2.461000000     2.903000000     0.213000000
O     1.827000000     0.762000000    -2.676000000
H     2.374000000    -0.017000000    -2.578000000
H     1.271000000     0.763000000    -1.897000000
O    -4.949000000    -2.952000000    -2.312000000
H    -4.230000000    -2.434000000    -2.674000000
H    -4.725000000    -3.857000000    -2.530000000
O     2.491000000     6.722000000    -0.217000000
H     2.407000000     7.419000000    -0.868000000
H     1.622000000     6.323000000    -0.179000000
O     1.511000000     4.356000000     2.687000000
H     0.699000000     4.038000000     2.293000000
H     2.074000000     3.583000000     2.733000000
O     3.627000000    -0.828000000     3.229000000
H     3.321000000    -1.695000000     2.966000000
H     4.417000000    -0.684000000     2.707000000
O    -0.031000000    -7.058000000     3.097000000
H     0.645000000    -6.707000000     2.518000000
H     0.063000000    -6.556000000     3.906000000
O     2.104000000     0.063000000     5.264000000
H     2.657000000    -0.131000000     4.507000000
H     2.409000000     0.918000000     5.570000000
O    -6.642000000     2.026000000    -0.527000000
H    -6.267000000     2.663000000     0.081000000
H    -6.227000000     2.222000000    -1.367000000
O    -1.470000000    -5.808000000    -3.029000000
H    -2.349000000    -5.464000000    -2.866000000
H    -1.114000000    -5.977000000    -2.157000000
O    -5.088000000     0.659000000    -3.433000000
H    -5.579000000     0.345000000    -2.674000000
H    -4.219000000     0.271000000    -3.334000000
O    -4.475000000     3.471000000     4.150000000
H    -4.610000000     4.285000000     4.635000000
H    -3.535000000     3.305000000     4.217000000
O    -1.831000000     2.628000000     3.499000000
H    -1.330000000     1.812000000     3.492000000
H    -1.760000000     2.959000000     2.603000000
O    -0.135000000     5.453000000    -2.992000000
H     0.597000000     4.838000000    -3.032000000
H    -0.336000000     5.526000000    -2.059000000
O    -3.037000000    -1.186000000    -3.416000000
H    -2.191000000    -0.739000000    -3.430000000
H    -3.014000000    -1.765000000    -4.178000000
O    -0.746000000    -2.920000000     3.684000000
H    -1.079000000    -2.860000000     2.788000000
H    -1.483000000    -3.261000000     4.191000000
O    -2.123000000     6.435000000     3.586000000
H    -2.913000000     6.411000000     4.126000000
H    -1.403000000     6.466000000     4.216000000
O     3.777000000     4.065000000     0.155000000
H     3.718000000     3.559000000     0.966000000
H     3.246000000     4.844000000     0.321000000
O     5.918000000    -0.795000000    -0.144000000
H     6.434000000    -1.029000000    -0.916000000
H     5.294000000    -1.514000000    -0.046000000
O     0.824000000    -6.769000000    -4.020000000
H    -0.007000000    -6.540000000    -3.604000000
H     0.576000000    -7.308000000    -4.770000000
O     0.997000000    -4.237000000     0.730000000
H     1.301000000    -5.145000000     0.721000000
H     1.800000000    -3.716000000     0.698000000
O    -2.743000000     4.121000000    -4.513000000
H    -1.886000000     4.536000000    -4.610000000
H    -2.795000000     3.894000000    -3.585000000
O    -0.261000000     6.140000000    -0.259000000
H    -0.680000000     5.529000000     0.347000000
H    -0.551000000     7.004000000     0.033000000
O    -0.884000000    -6.146000000    -0.329000000
H    -0.171000000    -6.781000000    -0.398000000
H    -0.818000000    -5.808000000     0.565000000
O    -4.762000000     7.307000000     0.128000000
H    -5.276000000     6.795000000    -0.496000000
H    -4.196000000     6.666000000     0.557000000
O     4.408000000    -0.800000000    -5.300000000
H     3.805000000    -1.136000000    -4.637000000
H     4.951000000    -0.167000000    -4.831000000
O    -0.514000000     0.220000000     4.015000000
H     0.286000000     0.247000000     4.539000000
H    -0.463000000    -0.611000000     3.543000000
O     4.966000000    -4.468000000    -3.982000000
H     4.124000000    -4.013000000    -3.987000000
H     5.358000000    -4.255000000    -4.829000000
O     3.161000000    -6.182000000    -1.045000000
H     3.347000000    -6.965000000    -1.563000000
H     3.901000000    -5.600000000    -1.216000000
O     1.654000000     3.430000000    -3.052000000
H     2.506000000     3.855000000    -2.951000000
H     1.804000000     2.525000000    -2.778000000
O     5.931000000     0.834000000     2.010000000
H     6.292000000     1.634000000     1.628000000
H     6.047000000     0.170000000     1.331000000
O     1.242000000     7.105000000     3.302000000
H     0.676000000     7.392000000     2.586000000
H     1.416000000     6.183000000     3.116000000
O     3.111000000    -1.871000000    -2.951000000
H     2.503000000    -2.540000000    -3.263000000
H     3.520000000    -2.260000000    -2.178000000
O    -4.026000000     0.185000000     0.562000000
H    -4.171000000     1.114000000     0.741000000
H    -3.074000000     0.097000000     0.511000000
O    -6.018000000    -0.772000000    -1.354000000
H    -5.655000000    -1.590000000    -1.694000000
H    -5.472000000    -0.565000000    -0.596000000
O     1.833000000    -6.737000000     1.153000000
H     2.498000000    -6.612000000     0.475000000
H     1.700000000    -7.685000000     1.185000000
O    -0.321000000     3.535000000     5.796000000
H    -0.763000000     3.266000000     4.991000000
H    -0.174000000     4.475000000     5.687000000
O     3.953000000    -2.833000000    -0.196000000
H     3.866000000    -3.146000000     0.705000000
H     4.317000000    -3.578000000    -0.674000000
O     1.780000000    -4.094000000    -3.846000000
H     1.279000000    -3.805000000    -4.609000000
H     1.606000000    -5.033000000    -3.787000000
O    -0.605000000    -0.257000000    -4.220000000
H    -0.827000000    -0.337000000    -5.147000000
H     0.200000000     0.262000000    -4.210000000
O    -4.709000000     2.702000000     1.618000000
H    -4.638000000     3.028000000     2.516000000
H    -3.937000000     3.053000000     1.174000000
O     3.388000000    -3.501000000     2.602000000
H     2.620000000    -3.859000000     3.047000000
H     4.101000000    -4.092000000     2.842000000
O    -1.469000000    -2.963000000     1.116000000
H    -1.454000000    -2.192000000     0.549000000
H    -0.698000000    -3.467000000     0.854000000
O     2.351000000     2.870000000     5.760000000
H     2.579000000     3.253000000     6.607000000
H     1.441000000     3.129000000     5.618000000
O     3.670000000     2.207000000     2.844000000
H     3.669000000     1.678000000     3.641000000
H     4.360000000     1.824000000     2.303000000
O     1.488000000    -3.856000000     4.624000000
H     0.800000000    -3.291000000     4.272000000
H     1.018000000    -4.607000000     4.987000000
O    -2.879000000     5.544000000     1.055000000
H    -2.475000000     4.682000000     1.156000000
H    -2.794000000     5.950000000     1.917000000
O    -2.679000000     7.002000000    -2.435000000
H    -1.817000000     6.861000000    -2.826000000
H    -2.965000000     6.129000000    -2.165000000
O    -3.287000000     4.409000000    -1.929000000
H    -2.868000000     3.871000000    -1.256000000
H    -4.125000000     4.664000000    -1.544000000
