158
-3026.42119
C    -0.583000000     1.216000000     0.565000000
H    -0.854000000     2.127000000     1.094000000
C    -0.288000000     0.062000000     1.302000000
H    -0.487000000     0.076000000     2.370000000
C     0.258000000    -1.050000000     0.693000000
H     0.550000000    -1.996000000     1.163000000
C     0.539000000    -0.924000000    -0.709000000
H     0.910000000    -1.809000000    -1.220000000
C     0.284000000     0.292000000    -1.416000000
H     0.369000000     0.301000000    -2.500000000
C    -0.296000000     1.350000000    -0.794000000
C    -0.568000000     2.645000000    -1.584000000
O    -0.584000000     3.703000000    -1.036000000
O    -0.638000000     2.634000000    -2.821000000
O     3.428000000     0.063000000    -0.683000000
H     2.713000000    -0.151000000    -1.282000000
H     3.096000000    -0.181000000     0.182000000
O    -3.006000000    -1.933000000     1.805000000
H    -2.604000000    -2.283000000     1.011000000
H    -3.858000000    -1.605000000     1.518000000
O    -1.814000000    -3.764000000    -3.352000000
H    -1.013000000    -3.787000000    -3.875000000
H    -2.167000000    -4.651000000    -3.416000000
O     0.953000000     4.669000000     1.554000000
H     0.343000000     4.204000000     0.981000000
H     0.425000000     5.358000000     1.956000000
O    -3.206000000     3.142000000    -6.493000000
H    -2.766000000     3.842000000    -6.009000000
H    -4.139000000     3.309000000    -6.360000000
O     5.014000000     1.330000000     1.748000000
H     4.504000000     0.525000000     1.660000000
H     4.557000000     1.963000000     1.193000000
O    -2.512000000     6.881000000    -2.253000000
H    -2.246000000     7.673000000    -1.787000000
H    -1.787000000     6.699000000    -2.850000000
O     3.976000000    -4.620000000     4.827000000
H     3.045000000    -4.746000000     4.646000000
H     4.146000000    -3.710000000     4.580000000
O     0.668000000     2.866000000     4.294000000
H     1.510000000     3.013000000     3.863000000
H     0.688000000     1.945000000     4.554000000
O     3.695000000    -6.709000000    -0.038000000
H     3.991000000    -6.539000000     0.856000000
H     2.740000000    -6.710000000     0.021000000
O    -2.971000000    -0.624000000    -3.842000000
H    -3.401000000    -0.945000000    -4.634000000
H    -2.036000000    -0.726000000    -4.018000000
O    -4.696000000     0.380000000    -2.010000000
H    -4.171000000    -0.171000000    -2.591000000
H    -5.596000000     0.255000000    -2.310000000
O    -1.250000000    -4.130000000     4.377000000
H    -2.129000000    -3.829000000     4.606000000
H    -1.386000000    -4.993000000     3.986000000
O    -0.534000000     5.772000000    -4.206000000
H    -0.758000000     4.843000000    -4.155000000
H     0.162000000     5.887000000    -3.559000000
O     3.639000000     4.331000000    -2.293000000
H     2.936000000     4.981000000    -2.309000000
H     3.293000000     3.591000000    -2.791000000
O     2.823000000    -3.325000000    -2.465000000
H     3.574000000    -2.789000000    -2.211000000
H     2.635000000    -3.063000000    -3.366000000
O     0.972000000    -2.648000000     4.889000000
H     0.469000000    -3.455000000     4.782000000
H     0.938000000    -2.466000000     5.828000000
O    -2.387000000    -5.592000000    -0.104000000
H    -2.774000000    -6.279000000    -0.647000000
H    -2.232000000    -4.867000000    -0.709000000
O    -1.379000000     1.429000000    -5.342000000
H    -2.021000000     2.074000000    -5.637000000
H    -1.170000000     1.693000000    -4.446000000
O     1.096000000     5.748000000    -1.731000000
H     1.001000000     6.469000000    -1.108000000
H     0.515000000     5.064000000    -1.397000000
O     1.601000000    -4.124000000     2.847000000
H     1.186000000    -3.442000000     3.374000000
H     0.871000000    -4.628000000     2.489000000
O     0.787000000    -4.998000000    -1.236000000
H     0.868000000    -5.689000000    -1.893000000
H     1.286000000    -4.265000000    -1.598000000
O     2.898000000     0.577000000    -4.330000000
H     2.266000000     0.241000000    -4.965000000
H     3.389000000    -0.196000000    -4.049000000
O    -2.022000000    -0.985000000     4.278000000
H    -2.418000000    -1.061000000     3.411000000
H    -2.080000000    -1.867000000     4.646000000
O     4.394000000    -6.566000000     3.081000000
H     5.279000000    -6.735000000     3.404000000
H     4.191000000    -5.683000000     3.391000000
O    -0.092000000    -5.682000000     1.242000000
H     0.316000000    -5.404000000     0.422000000
H    -1.032000000    -5.606000000     1.080000000
O    -4.211000000    -5.136000000     1.935000000
H    -3.942000000    -4.218000000     1.976000000
H    -3.613000000    -5.532000000     1.300000000
O    -2.177000000     7.059000000     2.441000000
H    -2.325000000     6.798000000     3.350000000
H    -2.046000000     6.234000000     1.974000000
O     6.199000000    -1.472000000     0.023000000
H     6.698000000    -1.705000000     0.806000000
H     5.398000000    -1.072000000     0.359000000
O    -2.037000000    -2.776000000    -0.870000000
H    -1.378000000    -2.133000000    -0.612000000
H    -1.757000000    -3.073000000    -1.736000000
O     1.476000000    -2.545000000    -4.772000000
H     1.009000000    -3.320000000    -5.084000000
H     1.030000000    -1.810000000    -5.193000000
O     4.055000000    -3.765000000     1.588000000
H     3.252000000    -3.885000000     2.095000000
H     3.769000000    -3.334000000     0.783000000
O     0.554000000     2.171000000    -8.002000000
H     0.340000000     2.078000000    -7.074000000
H     1.309000000     1.597000000    -8.133000000
O     1.753000000     2.929000000    -3.925000000
H     2.037000000     2.015000000    -3.922000000
H     0.946000000     2.931000000    -3.409000000
O     2.192000000     6.088000000    -5.510000000
H     1.357000000     5.852000000    -5.106000000
H     2.537000000     6.789000000    -4.957000000
O     0.474000000    -0.400000000    -6.110000000
H     0.317000000    -0.724000000    -6.996000000
H    -0.262000000     0.188000000    -5.936000000
O     3.428000000    -0.920000000     2.257000000
H     2.721000000    -1.114000000     2.873000000
H     4.079000000    -1.603000000     2.418000000
O    -4.257000000     1.814000000     1.374000000
H    -3.673000000     1.849000000     0.617000000
H    -4.981000000     2.397000000     1.145000000
O     4.158000000    -5.671000000    -2.746000000
H     4.197000000    -5.967000000    -1.837000000
H     3.655000000    -4.858000000    -2.712000000
O    -0.071000000     5.517000000     4.383000000
H    -0.736000000     5.676000000     5.053000000
H     0.120000000     4.581000000     4.452000000
O     3.268000000     3.082000000     0.507000000
H     3.217000000     3.472000000    -0.365000000
H     2.643000000     3.584000000     1.031000000
O     0.655000000     0.123000000     4.895000000
H    -0.258000000    -0.044000000     5.130000000
H     1.010000000    -0.740000000     4.683000000
O     4.649000000    -1.718000000    -3.706000000
H     4.400000000    -2.316000000    -4.410000000
H     5.363000000    -1.198000000    -4.075000000
O    -2.138000000     4.818000000     0.933000000
H    -1.647000000     4.243000000     0.346000000
H    -2.700000000     5.330000000     0.352000000
O    -4.660000000    -3.098000000    -0.772000000
H    -4.905000000    -2.231000000    -1.096000000
H    -3.703000000    -3.096000000    -0.783000000
O    -4.224000000     0.947000000     4.046000000
H    -4.472000000     1.318000000     3.199000000
H    -3.358000000     0.568000000     3.898000000
O    -4.836000000     5.552000000    -2.886000000
H    -4.060000000     6.063000000    -2.658000000
H    -4.568000000     4.641000000    -2.761000000
O    -3.549000000     3.117000000    -2.602000000
H    -2.759000000     2.716000000    -2.965000000
H    -4.191000000     2.408000000    -2.583000000
