158
-3004.65478
C     0.687000000     1.296000000     0.207000000
H     1.263000000     2.189000000     0.435000000
C     1.244000000     0.168000000    -0.354000000
H     2.322000000     0.126000000    -0.485000000
C     0.484000000    -0.978000000    -0.542000000
H     0.977000000    -1.886000000    -0.902000000
C    -0.901000000    -0.988000000    -0.253000000
H    -1.507000000    -1.890000000    -0.278000000
C    -1.410000000     0.190000000     0.358000000
H    -2.457000000     0.183000000     0.647000000
C    -0.617000000     1.290000000     0.604000000
C    -1.226000000     2.433000000     1.328000000
O    -0.540000000     3.347000000     1.650000000
O    -2.408000000     2.436000000     1.753000000
O    -5.340000000     4.952000000     4.324000000
H    -5.336000000     4.508000000     3.476000000
H    -6.189000000     4.732000000     4.706000000
O    -2.117000000     0.456000000    -3.177000000
H    -1.827000000     1.241000000    -3.642000000
H    -2.821000000     0.762000000    -2.606000000
O    -0.290000000     0.871000000     5.770000000
H    -1.188000000     0.978000000     5.456000000
H    -0.282000000     1.303000000     6.624000000
O    -0.321000000    -1.738000000    -3.835000000
H     0.536000000    -1.332000000    -3.699000000
H    -0.948000000    -1.082000000    -3.530000000
O    -2.058000000    -2.324000000     2.225000000
H    -2.079000000    -2.247000000     3.179000000
H    -1.605000000    -1.533000000     1.932000000
O     2.153000000     3.878000000     5.793000000
H     2.484000000     4.776000000     5.821000000
H     2.184000000     3.640000000     4.867000000
O    -1.800000000     5.416000000     2.948000000
H    -1.288000000     5.370000000     2.140000000
H    -2.225000000     4.561000000     3.010000000
O     4.335000000     1.593000000    -1.536000000
H     4.521000000     0.829000000    -0.990000000
H     3.755000000     2.135000000    -1.001000000
O    -2.729000000    -6.154000000    -1.642000000
H    -3.267000000    -5.787000000    -2.344000000
H    -2.036000000    -5.508000000    -1.510000000
O     3.709000000     1.582000000     1.592000000
H     3.480000000     2.269000000     0.966000000
H     2.868000000     1.271000000     1.925000000
O     6.715000000     2.667000000     0.810000000
H     7.347000000     2.227000000     0.241000000
H     6.067000000     1.994000000     1.014000000
O    -3.941000000    -1.967000000     0.114000000
H    -3.802000000    -1.849000000     1.054000000
H    -4.475000000    -1.216000000    -0.145000000
O     1.534000000     3.482000000     3.266000000
H     1.341000000     2.551000000     3.380000000
H     0.777000000     3.827000000     2.793000000
O     1.081000000     0.546000000    -5.465000000
H     0.248000000     1.018000000    -5.471000000
H     1.740000000     1.224000000    -5.612000000
O     3.286000000     3.790000000    -0.154000000
H     2.565000000     4.388000000     0.045000000
H     3.950000000     4.345000000    -0.565000000
O    -0.765000000     7.584000000     0.638000000
H    -0.455000000     8.077000000    -0.121000000
H    -1.572000000     8.027000000     0.899000000
O    -1.959000000     5.270000000    -2.286000000
H    -2.124000000     6.213000000    -2.258000000
H    -2.697000000     4.913000000    -2.780000000
O     5.881000000     1.939000000    -3.682000000
H     5.452000000     1.940000000    -2.826000000
H     5.785000000     1.041000000    -3.998000000
O    -1.399000000     6.965000000     5.071000000
H    -1.624000000     6.424000000     4.314000000
H    -0.731000000     7.567000000     4.745000000
O     6.536000000    -2.863000000    -3.143000000
H     7.026000000    -2.313000000    -3.755000000
H     5.628000000    -2.799000000    -3.438000000
O    -1.408000000    -4.517000000     0.806000000
H    -1.753000000    -3.660000000     1.059000000
H    -0.957000000    -4.358000000    -0.023000000
O     0.834000000     5.148000000     0.393000000
H     0.254000000     5.906000000     0.322000000
H     0.326000000     4.503000000     0.885000000
O     3.897000000    -2.870000000    -3.613000000
H     3.639000000    -1.968000000    -3.423000000
H     4.224000000    -2.841000000    -4.513000000
O    -4.268000000    -3.362000000    -2.100000000
H    -3.374000000    -3.437000000    -2.433000000
H    -4.165000000    -3.016000000    -1.213000000
O    -2.493000000    -5.536000000     2.947000000
H    -2.228000000    -5.361000000     2.044000000
H    -1.696000000    -5.850000000     3.374000000
O     3.436000000     5.448000000     3.208000000
H     3.648000000     5.629000000     4.124000000
H     2.764000000     4.768000000     3.247000000
O    -0.187000000    -7.785000000    -1.475000000
H    -1.000000000    -7.371000000    -1.187000000
H    -0.459000000    -8.397000000    -2.159000000
O     0.824000000     5.160000000    -2.440000000
H    -0.131000000     5.138000000    -2.494000000
H     1.015000000     5.029000000    -1.511000000
O    -6.642000000     5.953000000     0.887000000
H    -7.265000000     5.230000000     0.815000000
H    -5.791000000     5.527000000     0.995000000
O     2.742000000     2.507000000    -3.740000000
H     1.994000000     3.018000000    -3.430000000
H     3.321000000     2.445000000    -2.980000000
O     2.156000000    -0.775000000    -3.256000000
H     1.866000000    -0.213000000    -3.975000000
H     2.293000000    -0.175000000    -2.523000000
O    -5.359000000     0.262000000    -0.396000000
H    -5.853000000     0.804000000     0.218000000
H    -4.714000000     0.859000000    -0.778000000
O    -5.517000000     1.452000000     2.757000000
H    -6.103000000     1.318000000     3.502000000
H    -5.049000000     0.621000000     2.668000000
O    -4.759000000     3.786000000     1.662000000
H    -5.271000000     2.979000000     1.618000000
H    -3.876000000     3.498000000     1.895000000
O     1.446000000     7.789000000     2.499000000
H     1.979000000     6.995000000     2.545000000
H     0.658000000     7.521000000     2.027000000
O     5.843000000    -0.479000000    -0.792000000
H     6.411000000    -0.768000000    -0.078000000
H     6.312000000    -0.730000000    -1.588000000
O    -3.175000000     2.565000000     6.576000000
H    -2.393000000     2.483000000     7.122000000
H    -2.914000000     2.201000000     5.729000000
O     2.277000000    -4.818000000    -2.365000000
H     2.723000000    -5.636000000    -2.584000000
H     2.793000000    -4.140000000    -2.802000000
O     3.034000000    -4.185000000     0.525000000
H     3.168000000    -4.114000000    -0.420000000
H     3.230000000    -3.310000000     0.861000000
O     4.722000000    -5.336000000     2.745000000
H     4.495000000    -4.700000000     2.066000000
H     5.302000000    -4.857000000     3.337000000
O    -0.526000000    -3.910000000    -2.109000000
H     0.148000000    -4.458000000    -2.512000000
H    -0.558000000    -3.127000000    -2.658000000
O     2.079000000    -6.709000000     0.363000000
H     2.189000000    -5.762000000     0.449000000
H     1.131000000    -6.838000000     0.327000000
O     1.006000000    -3.501000000    -6.136000000
H     0.736000000    -3.020000000    -5.354000000
H     1.434000000    -2.845000000    -6.686000000
O    -3.434000000    -1.426000000    -4.986000000
H    -3.126000000    -2.242000000    -4.589000000
H    -3.068000000    -0.737000000    -4.431000000
O     3.986000000    -2.049000000     2.096000000
H     4.071000000    -1.204000000     1.655000000
H     4.880000000    -2.390000000     2.135000000
O    -2.478000000     1.433000000     4.293000000
H    -2.980000000     0.677000000     3.988000000
H    -2.284000000     1.928000000     3.497000000
O    -3.524000000     2.054000000    -1.117000000
H    -3.562000000     2.273000000    -0.186000000
H    -3.669000000     2.887000000    -1.565000000
O    -4.488000000    -0.915000000     3.420000000
H    -5.108000000    -1.403000000     3.962000000
H    -3.638000000    -1.308000000     3.615000000
