158
-3038.20836
C     0.748000000     0.675000000     1.075000000
H     1.478000000     1.077000000     1.773000000
C     1.052000000    -0.595000000     0.618000000
H     1.899000000    -1.153000000     1.010000000
C     0.250000000    -1.109000000    -0.368000000
H     0.445000000    -2.080000000    -0.854000000
C    -0.845000000    -0.399000000    -0.866000000
H    -1.494000000    -0.853000000    -1.609000000
C    -1.154000000     0.859000000    -0.403000000
H    -1.936000000     1.418000000    -0.909000000
C    -0.346000000     1.399000000     0.605000000
C    -0.578000000     2.798000000     1.039000000
O     0.341000000     3.364000000     1.596000000
O    -1.612000000     3.408000000     0.947000000
O     1.744000000     0.792000000    -2.182000000
H     2.538000000     0.489000000    -1.743000000
H     1.043000000     0.260000000    -1.804000000
O     1.932000000    -2.070000000    -5.974000000
H     2.740000000    -2.188000000    -5.475000000
H     1.537000000    -1.279000000    -5.607000000
O    -3.295000000    -0.030000000     1.687000000
H    -3.579000000    -0.166000000     2.591000000
H    -2.585000000    -0.659000000     1.562000000
O    -3.981000000    -1.750000000    -2.678000000
H    -3.476000000    -1.799000000    -3.490000000
H    -3.792000000    -2.574000000    -2.229000000
O     0.558000000     5.892000000     1.472000000
H     0.922000000     6.164000000     0.630000000
H     0.466000000     4.942000000     1.398000000
O     3.859000000     6.489000000     0.723000000
H     3.232000000     6.654000000     0.019000000
H     3.718000000     5.572000000     0.959000000
O     2.836000000     3.865000000     0.906000000
H     1.984000000     3.600000000     1.251000000
H     3.426000000     3.813000000     1.657000000
O     3.951000000    -0.453000000     4.460000000
H     3.891000000    -1.267000000     3.959000000
H     4.438000000     0.143000000     3.891000000
O     2.176000000     1.844000000     4.826000000
H     2.466000000     0.932000000     4.820000000
H     2.905000000     2.324000000     5.218000000
O    -0.182000000    -4.752000000    -1.759000000
H    -1.007000000    -4.271000000    -1.818000000
H    -0.055000000    -4.897000000    -0.821000000
O    -3.036000000     1.810000000    -2.999000000
H    -3.663000000     1.593000000    -2.310000000
H    -2.812000000     0.967000000    -3.394000000
O     0.370000000     3.885000000     4.322000000
H     1.274000000     3.603000000     4.458000000
H     0.216000000     3.754000000     3.386000000
O    -2.261000000    -0.602000000    -4.681000000
H    -1.338000000    -0.380000000    -4.558000000
H    -2.258000000    -1.540000000    -4.876000000
O    -1.094000000    -4.446000000     2.393000000
H    -1.174000000    -3.541000000     2.695000000
H    -1.837000000    -4.898000000     2.791000000
O     2.717000000     3.393000000    -1.735000000
H     2.279000000     2.553000000    -1.872000000
H     2.639000000     3.553000000    -0.795000000
O     0.036000000    -7.395000000    -2.813000000
H     0.016000000    -6.489000000    -2.506000000
H    -0.295000000    -7.352000000    -3.710000000
O    -0.173000000     8.028000000     2.750000000
H     0.063000000     7.133000000     2.506000000
H     0.666000000     8.470000000     2.883000000
O     0.872000000    -5.342000000     0.877000000
H     0.198000000    -4.803000000     1.292000000
H     1.661000000    -5.179000000     1.395000000
O    -2.624000000     4.383000000    -4.616000000
H    -2.996000000     5.226000000    -4.876000000
H    -3.101000000     4.146000000    -3.821000000
O     0.347000000     4.549000000    -2.980000000
H     0.885000000     4.504000000    -2.190000000
H    -0.553000000     4.501000000    -2.660000000
O     3.748000000    -4.643000000     1.075000000
H     4.694000000    -4.513000000     1.019000000
H     3.495000000    -4.936000000     0.199000000
O    -2.764000000    -3.301000000    -0.426000000
H    -2.031000000    -3.718000000     0.026000000
H    -3.543000000    -3.688000000    -0.026000000
O    -3.096000000     6.009000000     0.741000000
H    -2.906000000     6.616000000     1.457000000
H    -2.386000000     5.369000000     0.775000000
O    -0.719000000     2.127000000    -5.505000000
H    -1.372000000     2.041000000    -6.200000000
H    -1.104000000     2.752000000    -4.891000000
O    -0.529000000     0.800000000     4.163000000
H     0.267000000     1.322000000     4.065000000
H    -1.137000000     1.374000000     4.629000000
O    -2.334000000     2.444000000     5.498000000
H    -2.716000000     2.116000000     6.312000000
H    -2.801000000     3.262000000     5.327000000
O     3.557000000    -5.834000000    -1.273000000
H     3.208000000    -6.632000000    -1.670000000
H     4.505000000    -5.905000000    -1.385000000
O    -5.564000000     5.929000000    -0.595000000
H    -5.040000000     5.363000000    -0.029000000
H    -5.077000000     6.753000000    -0.627000000
O     4.994000000     1.075000000     1.881000000
H     5.885000000     0.915000000     2.191000000
H     4.947000000     0.617000000     1.042000000
O     2.306000000     6.560000000     3.941000000
H     1.691000000     6.110000000     3.362000000
H     1.751000000     6.990000000     4.592000000
O     4.131000000     0.005000000    -1.289000000
H     4.905000000    -0.385000000    -1.694000000
H     3.923000000    -0.578000000    -0.558000000
O    -2.813000000    -3.168000000    -4.967000000
H    -3.014000000    -3.934000000    -4.430000000
H    -3.441000000    -3.211000000    -5.689000000
O    -4.349000000     2.551000000     0.997000000
H    -4.208000000     1.677000000     1.360000000
H    -3.469000000     2.919000000     0.911000000
O    -4.785000000     0.279000000    -1.222000000
H    -4.498000000    -0.514000000    -1.675000000
H    -4.631000000     0.095000000    -0.295000000
O     0.601000000    -7.975000000     0.976000000
H     0.621000000    -7.021000000     1.050000000
H     1.519000000    -8.226000000     0.870000000
O    -5.352000000     4.279000000     3.325000000
H    -4.454000000     3.976000000     3.187000000
H    -5.257000000     5.186000000     3.615000000
O    -0.295000000     3.515000000     6.779000000
H    -1.156000000     3.308000000     6.416000000
H     0.252000000     3.694000000     6.014000000
O     5.048000000    -1.916000000     0.662000000
H     4.729000000    -2.152000000     1.533000000
H     4.563000000    -2.486000000     0.066000000
O     3.500000000    -3.210000000    -2.150000000
H     3.761000000    -3.140000000    -3.068000000
H     2.954000000    -3.996000000    -2.116000000
O     0.631000000    -0.094000000    -4.807000000
H     0.258000000     0.557000000    -5.402000000
H     0.869000000     0.404000000    -4.025000000
O     3.468000000    -2.727000000     3.077000000
H     2.781000000    -3.082000000     3.641000000
H     3.646000000    -3.425000000     2.446000000
O    -0.823000000    -1.510000000     2.903000000
H    -0.815000000    -0.678000000     3.376000000
H    -0.345000000    -1.330000000     2.094000000
O     3.573000000    -5.827000000    -4.544000000
H     3.538000000    -6.054000000    -5.473000000
H     2.713000000    -5.450000000    -4.358000000
O     1.256000000    -3.761000000     4.502000000
H     0.577000000    -4.196000000     3.987000000
H     1.050000000    -3.988000000     5.409000000
O     1.478000000    -4.290000000    -3.985000000
H     1.132000000    -4.186000000    -3.098000000
H     1.166000000    -3.517000000    -4.455000000
O    -2.538000000     4.607000000     3.101000000
H    -1.957000000     4.066000000     2.567000000
H    -2.014000000     4.836000000     3.869000000
O    -2.660000000     6.784000000    -2.008000000
H    -2.638000000     5.884000000    -2.333000000
H    -2.931000000     6.702000000    -1.093000000
O    -1.964000000     4.156000000    -1.615000000
H    -1.966000000     4.091000000    -0.660000000
H    -2.336000000     3.325000000    -1.912000000
