158
-3045.94630
C     0.646000000    -1.196000000     0.535000000
H     1.152000000    -2.065000000     0.947000000
C     1.111000000     0.111000000     0.708000000
H     2.062000000     0.384000000     1.159000000
C     0.415000000     1.128000000     0.097000000
H     0.809000000     2.190000000     0.128000000
C    -0.726000000     0.940000000    -0.554000000
H    -1.288000000     1.830000000    -0.825000000
C    -1.232000000    -0.332000000    -0.644000000
H    -2.243000000    -0.438000000    -1.030000000
C    -0.554000000    -1.396000000    -0.163000000
C    -1.119000000    -2.853000000    -0.360000000
O    -2.087000000    -3.151000000    -1.079000000
O    -0.562000000    -3.805000000     0.200000000
O     1.743000000     4.553000000    -2.603000000
H     1.028000000     4.851000000    -2.042000000
H     1.536000000     3.637000000    -2.790000000
O    -0.710000000    -3.604000000     4.761000000
H    -1.478000000    -3.056000000     4.601000000
H     0.029000000    -3.076000000     4.458000000
O     1.558000000     1.915000000    -2.960000000
H     2.481000000     1.736000000    -3.138000000
H     1.311000000     1.267000000    -2.300000000
O    -4.335000000     1.757000000    -2.596000000
H    -5.066000000     1.275000000    -2.208000000
H    -4.516000000     1.751000000    -3.536000000
O     1.325000000    -4.384000000     1.815000000
H     0.512000000    -4.321000000     1.314000000
H     1.286000000    -3.650000000     2.428000000
O    -2.367000000    -2.850000000    -3.642000000
H    -3.183000000    -3.257000000    -3.935000000
H    -2.297000000    -3.092000000    -2.719000000
O    -0.343000000     1.868000000     3.787000000
H     0.239000000     2.230000000     3.118000000
H    -0.917000000     1.270000000     3.307000000
O     1.621000000     7.552000000     2.209000000
H     1.703000000     8.350000000     2.730000000
H     1.430000000     6.866000000     2.849000000
O     0.898000000     5.696000000     3.827000000
H     1.029000000     5.770000000     4.772000000
H     0.001000000     5.374000000     3.733000000
O     0.642000000     4.868000000     0.658000000
H     0.724000000     4.107000000     1.234000000
H     1.134000000     5.558000000     1.102000000
O    -4.557000000    -6.889000000     1.275000000
H    -5.311000000    -6.352000000     1.030000000
H    -4.090000000    -6.363000000     1.924000000
O     0.235000000    -0.124000000     5.861000000
H     1.030000000     0.235000000     6.255000000
H    -0.022000000     0.525000000     5.206000000
O     3.774000000     4.572000000    -4.584000000
H     4.495000000     4.940000000    -4.074000000
H     2.994000000     4.746000000    -4.058000000
O    -4.513000000    -4.315000000    -4.672000000
H    -4.369000000    -5.253000000    -4.550000000
H    -4.750000000    -4.226000000    -5.595000000
O    -1.437000000    -8.956000000    -1.036000000
H    -0.704000000    -9.564000000    -1.126000000
H    -1.026000000    -8.095000000    -0.956000000
O     4.947000000    -1.238000000    -2.302000000
H     4.284000000    -1.586000000    -2.899000000
H     5.436000000    -0.607000000    -2.830000000
O     2.407000000     1.752000000     5.974000000
H     2.902000000     1.928000000     6.774000000
H     2.422000000     2.581000000     5.496000000
O     4.507000000     0.746000000     2.394000000
H     4.744000000     0.132000000     1.699000000
H     4.820000000     1.594000000     2.081000000
O     3.858000000    -0.445000000     4.559000000
H     3.633000000     0.128000000     5.293000000
H     3.986000000     0.151000000     3.821000000
O    -1.979000000     0.302000000     2.454000000
H    -2.741000000     0.764000000     2.803000000
H    -2.167000000     0.198000000     1.521000000
O    -5.845000000     0.174000000    -0.236000000
H    -6.619000000     0.433000000    -0.736000000
H    -5.815000000    -0.779000000    -0.318000000
O     2.919000000    -2.006000000    -3.738000000
H     2.461000000    -2.482000000    -3.046000000
H     2.237000000    -1.484000000    -4.161000000
O    -2.807000000     3.877000000    -2.201000000
H    -2.710000000     3.957000000    -1.252000000
H    -3.343000000     3.093000000    -2.321000000
O     1.879000000     3.513000000     2.596000000
H     2.824000000     3.369000000     2.534000000
H     1.781000000     4.155000000     3.299000000
O     4.621000000     3.546000000     1.898000000
H     4.455000000     3.980000000     1.062000000
H     5.229000000     4.128000000     2.355000000
O     1.283000000    -1.981000000     3.934000000
H     0.953000000    -1.373000000     4.595000000
H     2.211000000    -1.762000000     3.849000000
O    -2.793000000     4.522000000     0.457000000
H    -2.865000000     5.440000000     0.721000000
H    -2.743000000     4.040000000     1.282000000
O    -0.200000000    -5.055000000    -4.374000000
H    -0.263000000    -4.109000000    -4.510000000
H    -0.562000000    -5.196000000    -3.499000000
O    -0.438000000     1.946000000    -4.851000000
H    -0.513000000     1.037000000    -5.141000000
H     0.260000000     1.932000000    -4.196000000
O    -2.575000000    -8.014000000    -3.478000000
H    -2.589000000    -8.511000000    -2.660000000
H    -2.327000000    -7.128000000    -3.216000000
O     4.563000000    -0.851000000     0.270000000
H     3.609000000    -0.781000000     0.297000000
H     4.763000000    -1.049000000    -0.644000000
O    -2.413000000    -1.662000000     4.393000000
H    -3.319000000    -1.353000000     4.401000000
H    -1.936000000    -0.994000000     3.900000000
O     1.826000000    -3.263000000    -1.577000000
H     1.116000000    -3.829000000    -1.880000000
H     2.123000000    -3.668000000    -0.763000000
O    -1.963000000    -5.628000000    -2.010000000
H    -1.690000000    -6.003000000    -1.174000000
H    -2.243000000    -4.738000000    -1.794000000
O     2.796000000    -5.335000000     3.980000000
H     2.229000000    -5.190000000     3.222000000
H     3.672000000    -5.102000000     3.672000000
O    -4.937000000    -2.612000000    -1.623000000
H    -4.206000000    -3.097000000    -1.239000000
H    -4.522000000    -1.977000000    -2.207000000
O    -1.094000000    -6.620000000     0.415000000
H    -0.795000000    -5.726000000     0.249000000
H    -1.091000000    -6.700000000     1.369000000
O     3.553000000     5.010000000    -0.173000000
H     3.366000000     5.919000000     0.062000000
H     2.835000000     4.762000000    -0.756000000
O    -3.143000000    -4.232000000     1.745000000
H    -2.488000000    -3.855000000     1.158000000
H    -2.635000000    -4.744000000     2.374000000
O    -0.820000000     5.508000000    -1.403000000
H    -1.507000000     4.996000000    -1.830000000
H    -0.647000000     5.042000000    -0.585000000
O    -6.076000000    -2.405000000     2.402000000
H    -5.820000000    -1.836000000     3.128000000
H    -5.272000000    -2.866000000     2.163000000
O    -1.687000000    -5.893000000     3.117000000
H    -1.665000000    -6.823000000     3.339000000
H    -1.185000000    -5.468000000     3.812000000
O    -0.709000000    -0.915000000    -4.681000000
H    -0.575000000    -1.372000000    -5.511000000
H    -1.233000000    -1.519000000    -4.155000000
O    -1.312000000     4.006000000     5.301000000
H    -1.290000000     3.680000000     6.201000000
H    -1.374000000     3.218000000     4.762000000
O    -5.075000000     1.179000000     2.686000000
H    -5.086000000     2.131000000     2.793000000
H    -5.274000000     1.041000000     1.760000000
O    -0.624000000     7.699000000     0.358000000
H    -0.486000000     6.988000000    -0.268000000
H     0.028000000     7.546000000     1.042000000
O     5.493000000     5.206000000    -2.395000000
H     5.007000000     5.032000000    -1.588000000
H     6.209000000     4.570000000    -2.385000000
O     3.008000000    -5.497000000    -0.187000000
H     3.189000000    -6.434000000    -0.117000000
H     2.367000000    -5.324000000     0.502000000
