158
-3011.06304
C    -0.532000000     1.292000000     0.366000000
H    -0.804000000     2.240000000     0.825000000
C     0.264000000     0.576000000     1.163000000
H     0.690000000     1.008000000     2.066000000
C     0.735000000    -0.652000000     0.698000000
H     1.415000000    -1.223000000     1.265000000
C     0.417000000    -1.084000000    -0.558000000
H     0.789000000    -2.023000000    -0.961000000
C    -0.362000000    -0.307000000    -1.422000000
H    -0.703000000    -0.689000000    -2.381000000
C    -0.953000000     0.844000000    -0.883000000
C    -1.927000000     1.683000000    -1.702000000
O    -2.174000000     2.803000000    -1.337000000
O    -2.324000000     1.373000000    -2.758000000
O    -6.769000000     4.367000000    -1.708000000
H    -7.652000000     4.059000000    -1.506000000
H    -6.332000000     3.607000000    -2.092000000
O     2.698000000     0.899000000    -1.775000000
H     2.903000000     1.086000000    -0.859000000
H     2.317000000     0.021000000    -1.760000000
O    -2.936000000     2.150000000     2.556000000
H    -3.207000000     1.782000000     1.715000000
H    -3.585000000     2.830000000     2.739000000
O     3.499000000     2.574000000     4.619000000
H     3.970000000     3.403000000     4.712000000
H     2.580000000     2.830000000     4.534000000
O    -2.796000000     7.779000000    -0.637000000
H    -1.844000000     7.726000000    -0.553000000
H    -3.059000000     6.906000000    -0.931000000
O     3.793000000     2.420000000     0.505000000
H     4.191000000     3.280000000     0.641000000
H     4.514000000     1.801000000     0.626000000
O    -0.257000000     4.913000000    -0.193000000
H    -0.770000000     4.260000000    -0.668000000
H     0.459000000     4.415000000     0.201000000
O    -2.924000000     2.224000000    -5.219000000
H    -3.864000000     2.162000000    -5.389000000
H    -2.820000000     1.896000000    -4.326000000
O     0.964000000    -4.660000000    -0.127000000
H     0.949000000    -5.543000000     0.241000000
H     0.451000000    -4.135000000     0.487000000
O     4.831000000    -5.337000000     0.341000000
H     5.344000000    -5.351000000     1.149000000
H     4.185000000    -6.034000000     0.455000000
O    -2.628000000     5.230000000     1.654000000
H    -1.859000000     5.351000000     1.097000000
H    -3.328000000     4.992000000     1.047000000
O    -1.606000000     0.345000000     4.125000000
H    -0.812000000     0.840000000     4.327000000
H    -1.813000000     0.581000000     3.221000000
O    -1.188000000     5.644000000     3.886000000
H    -1.655000000     5.953000000     4.662000000
H    -1.878000000     5.474000000     3.244000000
O    -0.184000000    -3.880000000     2.114000000
H     0.710000000    -3.893000000     2.455000000
H    -0.713000000    -3.549000000     2.841000000
O     1.486000000     3.287000000    -2.562000000
H     1.948000000     2.474000000    -2.359000000
H     2.039000000     3.976000000    -2.193000000
O    -1.637000000     3.704000000    -6.958000000
H    -1.979000000     3.138000000    -6.266000000
H    -2.239000000     3.577000000    -7.691000000
O     1.621000000     3.712000000     1.420000000
H     1.455000000     3.432000000     2.321000000
H     2.360000000     3.175000000     1.135000000
O     3.329000000    -3.728000000     5.937000000
H     4.063000000    -4.180000000     6.353000000
H     2.569000000    -3.966000000     6.468000000
O     2.358000000    -4.698000000     2.991000000
H     3.044000000    -4.422000000     2.383000000
H     2.782000000    -5.351000000     3.549000000
O     6.334000000     1.068000000     0.618000000
H     6.178000000     0.124000000     0.589000000
H     7.269000000     1.162000000     0.438000000
O    -5.748000000    -0.629000000    -1.917000000
H    -6.213000000    -1.241000000    -2.488000000
H    -6.170000000    -0.731000000    -1.064000000
O     2.857000000    -0.858000000     4.144000000
H     3.242000000    -1.544000000     4.690000000
H     3.182000000    -1.042000000     3.263000000
O     4.848000000     0.581000000     5.760000000
H     4.400000000     1.066000000     5.067000000
H     5.327000000    -0.108000000     5.298000000
O     0.399000000    -6.376000000     3.980000000
H     0.827000000    -5.655000000     3.519000000
H    -0.429000000    -6.006000000     4.287000000
O     1.319000000    -3.490000000    -5.388000000
H     1.400000000    -3.415000000    -6.339000000
H     1.198000000    -2.589000000    -5.086000000
O     5.916000000    -2.008000000    -1.113000000
H     6.263000000    -1.933000000    -0.224000000
H     5.063000000    -2.427000000    -1.003000000
O    -3.082000000     5.764000000    -4.703000000
H    -2.374000000     5.195000000    -4.401000000
H    -3.878000000     5.254000000    -4.556000000
O     3.218000000    -0.578000000    -5.194000000
H     3.712000000    -1.266000000    -4.749000000
H     2.304000000    -0.761000000    -4.978000000
O    -2.684000000    -4.114000000     0.125000000
H    -2.020000000    -3.646000000     0.631000000
H    -3.469000000    -3.572000000     0.201000000
O     6.311000000    -1.512000000     1.760000000
H     7.197000000    -1.802000000     1.977000000
H     5.739000000    -2.150000000     2.186000000
O     3.008000000    -4.151000000    -3.476000000
H     2.581000000    -3.569000000    -2.847000000
H     2.516000000    -4.028000000    -4.288000000
O     3.488000000    -3.244000000    -0.564000000
H     3.983000000    -3.916000000    -0.097000000
H     2.632000000    -3.643000000    -0.721000000
O    -2.452000000    -5.720000000    -2.224000000
H    -1.738000000    -5.585000000    -2.847000000
H    -2.182000000    -5.238000000    -1.442000000
O    -3.857000000    -2.484000000     3.513000000
H    -3.194000000    -1.877000000     3.842000000
H    -4.429000000    -1.943000000     2.970000000
O    -0.037000000     7.322000000    -1.094000000
H     0.331000000     7.072000000    -1.942000000
H    -0.183000000     6.491000000    -0.643000000
O    -0.002000000     1.576000000    -4.844000000
H    -0.937000000     1.675000000    -4.667000000
H     0.371000000     2.437000000    -4.656000000
O     4.827000000    -3.290000000     3.536000000
H     4.219000000    -3.595000000     4.209000000
H     5.349000000    -4.062000000     3.317000000
O    -2.957000000    -0.274000000    -6.903000000
H    -2.485000000    -0.850000000    -6.301000000
H    -3.552000000     0.222000000    -6.342000000
O    -3.252000000    -1.033000000    -3.463000000
H    -4.090000000    -1.085000000    -3.002000000
H    -2.800000000    -0.294000000    -3.056000000
O    -4.080000000     4.869000000    -0.803000000
H    -4.950000000     4.680000000    -1.152000000
H    -3.561000000     4.095000000    -1.023000000
O     0.113000000    -1.667000000     4.290000000
H    -0.434000000    -0.887000000     4.197000000
H     1.007000000    -1.328000000     4.337000000
O     0.967000000     3.621000000     4.229000000
H     0.178000000     4.143000000     4.375000000
H     0.698000000     2.722000000     4.417000000
O    -1.091000000     4.280000000    -3.451000000
H    -1.624000000     3.658000000    -2.955000000
H    -0.213000000     4.191000000    -3.079000000
O     0.849000000     0.993000000     4.857000000
H     1.662000000     0.617000000     4.519000000
H     0.980000000     1.031000000     5.805000000
O    -4.633000000     1.565000000     0.533000000
H    -5.210000000     2.194000000     0.967000000
H    -4.383000000     1.994000000    -0.285000000
O     0.662000000    -1.048000000    -4.753000000
H    -0.052000000    -1.408000000    -5.279000000
H     0.451000000    -0.118000000    -4.668000000
O    -1.761000000    -2.566000000    -5.277000000
H    -2.278000000    -2.369000000    -4.496000000
H    -1.512000000    -3.484000000    -5.175000000
O    -4.860000000     2.110000000    -2.449000000
H    -5.272000000     1.265000000    -2.272000000
H    -3.940000000     1.899000000    -2.609000000
