158
-3009.48926
C    -0.105000000     1.363000000     0.404000000
H    -0.120000000     2.375000000     0.801000000
C     1.016000000     0.617000000     0.505000000
H     1.897000000     1.077000000     0.945000000
C     1.002000000    -0.713000000     0.085000000
H     1.905000000    -1.338000000     0.117000000
C    -0.193000000    -1.229000000    -0.386000000
H    -0.257000000    -2.247000000    -0.763000000
C    -1.287000000    -0.433000000    -0.583000000
H    -2.204000000    -0.760000000    -1.068000000
C    -1.258000000     0.905000000    -0.135000000
C    -2.453000000     1.773000000    -0.306000000
O    -2.216000000     3.008000000    -0.313000000
O    -3.445000000     1.344000000    -0.869000000
O     5.936000000    -0.869000000     0.673000000
H     6.820000000    -0.986000000     1.022000000
H     5.640000000    -1.757000000     0.471000000
O    -8.570000000     1.691000000    -1.692000000
H    -7.734000000     1.689000000    -2.158000000
H    -8.938000000     2.558000000    -1.863000000
O     3.853000000     2.760000000    -0.988000000
H     3.890000000     3.622000000    -1.403000000
H     4.153000000     2.912000000    -0.092000000
O    -2.577000000    -3.462000000     2.632000000
H    -3.344000000    -3.145000000     3.110000000
H    -2.875000000    -3.539000000     1.725000000
O    -4.568000000     4.090000000    -1.945000000
H    -5.270000000     3.797000000    -1.364000000
H    -3.811000000     4.201000000    -1.370000000
O     5.814000000     0.799000000    -1.621000000
H     5.083000000     1.401000000    -1.485000000
H     5.959000000     0.399000000    -0.763000000
O    -2.352000000     4.521000000     2.231000000
H    -2.428000000     4.200000000     1.333000000
H    -2.418000000     3.735000000     2.773000000
O    -1.961000000     4.907000000    -2.895000000
H    -2.656000000     4.271000000    -3.067000000
H    -1.255000000     4.390000000    -2.506000000
O    -1.869000000    -0.914000000    -4.508000000
H    -2.387000000    -1.309000000    -5.210000000
H    -1.137000000    -1.516000000    -4.382000000
O    -2.952000000     7.071000000     1.067000000
H    -2.572000000     6.233000000     1.330000000
H    -2.377000000     7.387000000     0.370000000
O    -5.364000000    -0.930000000    -4.115000000
H    -5.579000000    -0.422000000    -3.333000000
H    -4.931000000    -0.304000000    -4.695000000
O     0.217000000    -4.290000000     2.129000000
H    -0.573000000    -3.808000000     2.371000000
H     0.028000000    -5.197000000     2.372000000
O    -4.825000000     1.561000000     2.728000000
H    -5.235000000     0.847000000     3.216000000
H    -4.757000000     2.275000000     3.361000000
O     1.242000000    -3.993000000     4.989000000
H     1.386000000    -4.442000000     4.156000000
H     1.635000000    -4.569000000     5.644000000
O    -2.182000000     6.598000000     4.221000000
H    -3.100000000     6.589000000     4.492000000
H    -2.111000000     5.879000000     3.593000000
O     2.369000000    -6.961000000     3.201000000
H     2.992000000    -6.382000000     2.761000000
H     2.523000000    -6.813000000     4.134000000
O     1.795000000     2.290000000    -2.830000000
H     2.535000000     2.251000000    -2.224000000
H     1.092000000     2.698000000    -2.323000000
O     4.696000000     2.945000000     1.695000000
H     4.361000000     3.479000000     2.416000000
H     5.631000000     3.144000000     1.664000000
O     2.367000000     4.746000000     3.314000000
H     2.007000000     5.564000000     2.971000000
H     1.758000000     4.488000000     4.006000000
O     0.846000000    -1.173000000     4.604000000
H     0.834000000    -2.024000000     5.041000000
H     1.735000000    -0.845000000     4.740000000
O    -2.464000000    -4.780000000    -1.368000000
H    -1.914000000    -5.236000000    -2.005000000
H    -3.132000000    -5.421000000    -1.125000000
O    -5.712000000     1.322000000    -2.431000000
H    -5.055000000     1.315000000    -1.735000000
H    -5.322000000     1.857000000    -3.123000000
O     3.835000000    -1.321000000     5.275000000
H     4.635000000    -1.405000000     4.756000000
H     4.052000000    -1.721000000     6.117000000
O     7.351000000    -2.391000000     2.528000000
H     6.760000000    -2.104000000     3.224000000
H     7.164000000    -3.325000000     2.426000000
O     0.833000000    -3.192000000    -3.549000000
H     1.069000000    -2.287000000    -3.345000000
H     1.310000000    -3.715000000    -2.905000000
O     4.353000000    -5.679000000     1.197000000
H     5.218000000    -5.649000000     1.607000000
H     3.997000000    -4.800000000     1.326000000
O     5.967000000    -1.558000000    -3.487000000
H     6.821000000    -1.344000000    -3.111000000
H     5.446000000    -0.764000000    -3.364000000
O     3.670000000    -8.157000000     0.199000000
H     3.891000000    -8.570000000     1.033000000
H     3.882000000    -7.232000000     0.326000000
O     0.661000000    -4.601000000    -0.448000000
H     0.509000000    -4.631000000     0.497000000
H    -0.214000000    -4.642000000    -0.833000000
O    -3.779000000     7.469000000    -2.827000000
H    -4.314000000     7.098000000    -3.529000000
H    -3.318000000     6.717000000    -2.454000000
O     3.215000000    -4.685000000    -1.439000000
H     3.478000000    -4.304000000    -0.601000000
H     2.286000000    -4.887000000    -1.329000000
O     1.071000000     6.536000000    -1.525000000
H     1.697000000     6.547000000    -0.801000000
H     1.603000000     6.353000000    -2.299000000
O     1.687000000    -0.765000000    -2.885000000
H     0.970000000    -0.151000000    -2.729000000
H     2.424000000    -0.405000000    -2.392000000
O     0.252000000     4.628000000     1.210000000
H     0.940000000     4.561000000     1.873000000
H    -0.538000000     4.845000000     1.706000000
O    -3.047000000     1.389000000    -3.716000000
H    -2.514000000     0.600000000    -3.813000000
H    -3.113000000     1.519000000    -2.770000000
O    -4.670000000     4.476000000    -5.008000000
H    -5.275000000     3.843000000    -5.395000000
H    -4.701000000     4.294000000    -4.069000000
O    -0.796000000     1.617000000    -5.451000000
H    -1.560000000     1.929000000    -4.966000000
H    -0.239000000     1.212000000    -4.786000000
O    -5.876000000     3.163000000     0.451000000
H    -6.687000000     2.662000000     0.361000000
H    -5.228000000     2.521000000     0.739000000
O     2.983000000    -3.274000000     1.649000000
H     2.032000000    -3.326000000     1.551000000
H     3.113000000    -2.779000000     2.458000000
O    -0.640000000    -6.046000000    -3.459000000
H    -0.074000000    -5.332000000    -3.752000000
H    -1.191000000    -6.241000000    -4.217000000
O    -1.986000000     2.182000000     3.626000000
H    -2.023000000     1.637000000     4.412000000
H    -1.767000000     1.571000000     2.922000000
O    -0.088000000     3.796000000    -1.513000000
H    -0.820000000     3.291000000    -1.160000000
H     0.177000000     4.369000000    -0.793000000
O    -4.298000000    -3.801000000    -3.819000000
H    -3.915000000    -3.861000000    -2.944000000
H    -4.338000000    -2.862000000    -3.999000000
O    -1.340000000    -0.457000000     2.856000000
H    -1.365000000    -0.727000000     1.938000000
H    -0.530000000    -0.836000000     3.196000000
O    -4.929000000    -2.854000000     0.545000000
H    -4.941000000    -1.897000000     0.561000000
H    -5.272000000    -3.083000000    -0.318000000
O     3.660000000    -0.804000000    -5.212000000
H     4.261000000    -0.119000000    -4.919000000
H     2.981000000    -0.830000000    -4.538000000
O    -5.031000000    -0.141000000     0.580000000
H    -4.356000000     0.194000000    -0.009000000
H    -5.111000000     0.528000000     1.260000000
O     5.499000000    -4.262000000    -2.977000000
H     5.540000000    -3.309000000    -2.900000000
H     4.692000000    -4.504000000    -2.521000000
