158
-3017.63887
C    -0.308000000     1.381000000     0.481000000
H    -0.274000000     2.378000000     0.913000000
C    -0.086000000     0.291000000     1.279000000
H    -0.010000000     0.489000000     2.345000000
C     0.151000000    -1.019000000     0.734000000
H     0.452000000    -1.897000000     1.334000000
C     0.138000000    -1.130000000    -0.638000000
H     0.459000000    -2.043000000    -1.132000000
C    -0.195000000     0.022000000    -1.438000000
H    -0.256000000    -0.021000000    -2.523000000
C    -0.356000000     1.252000000    -0.930000000
C    -0.540000000     2.420000000    -1.841000000
O    -0.566000000     3.535000000    -1.375000000
O    -0.669000000     2.305000000    -3.013000000
O     3.033000000     0.057000000     0.346000000
H     2.094000000     0.218000000     0.261000000
H     3.106000000    -0.891000000     0.456000000
O     3.717000000     5.543000000     1.812000000
H     2.857000000     5.555000000     2.231000000
H     3.599000000     4.993000000     1.038000000
O    -2.756000000    -1.777000000     2.098000000
H    -3.029000000    -1.665000000     1.187000000
H    -1.837000000    -1.511000000     2.107000000
O    -1.154000000    -2.037000000    -3.856000000
H    -0.475000000    -1.750000000    -4.467000000
H    -0.903000000    -2.931000000    -3.623000000
O    -3.207000000     5.246000000    -5.897000000
H    -3.919000000     4.742000000    -6.290000000
H    -3.096000000     4.865000000    -5.026000000
O    -1.194000000     6.476000000     0.593000000
H    -1.513000000     5.724000000     0.094000000
H    -1.987000000     6.886000000     0.940000000
O     4.333000000     2.284000000     1.521000000
H     4.202000000     1.395000000     1.193000000
H     3.690000000     2.812000000     1.048000000
O     0.018000000    -6.206000000     4.012000000
H    -0.886000000    -6.515000000     3.950000000
H     0.549000000    -6.989000000     3.861000000
O    -1.741000000     8.285000000    -2.771000000
H    -1.233000000     7.502000000    -2.557000000
H    -1.588000000     8.878000000    -2.036000000
O     2.967000000    -5.532000000     4.619000000
H     2.014000000    -5.563000000     4.537000000
H     3.230000000    -4.787000000     4.078000000
O    -0.958000000     5.043000000     4.043000000
H    -1.415000000     4.933000000     4.878000000
H    -1.543000000     4.649000000     3.397000000
O     1.186000000     0.233000000     7.390000000
H     1.973000000    -0.094000000     6.952000000
H     0.495000000     0.151000000     6.733000000
O    -3.080000000    -0.493000000    -4.777000000
H    -3.888000000    -0.967000000    -4.973000000
H    -2.436000000    -1.179000000    -4.604000000
O    -4.052000000     1.782000000    -3.095000000
H    -3.820000000     0.995000000    -3.587000000
H    -5.009000000     1.805000000    -3.117000000
O    -1.801000000     1.292000000     5.884000000
H    -1.782000000     0.346000000     5.737000000
H    -1.796000000     1.386000000     6.836000000
O    -0.368000000    -3.638000000     2.930000000
H    -0.099000000    -4.404000000     3.438000000
H    -0.316000000    -3.925000000     2.018000000
O    -0.004000000     6.009000000    -2.194000000
H     0.039000000     6.345000000    -1.299000000
H    -0.297000000     5.103000000    -2.096000000
O     2.252000000     5.096000000    -3.826000000
H     1.324000000     5.175000000    -3.604000000
H     2.331000000     4.226000000    -4.219000000
O     1.554000000    -5.268000000    -3.721000000
H     0.675000000    -5.037000000    -4.020000000
H     2.125000000    -4.621000000    -4.135000000
O    -2.518000000    -4.261000000    -0.944000000
H    -3.244000000    -4.884000000    -0.928000000
H    -2.940000000    -3.401000000    -0.929000000
O    -1.526000000     1.737000000    -5.339000000
H    -1.854000000     0.885000000    -5.052000000
H    -1.266000000     2.179000000    -4.530000000
O     2.593000000     7.085000000    -1.365000000
H     3.483000000     7.367000000    -1.576000000
H     2.411000000     6.380000000    -1.987000000
O     4.051000000    -2.825000000     3.204000000
H     3.286000000    -2.425000000     3.618000000
H     4.464000000    -2.109000000     2.721000000
O     2.394000000    -5.087000000    -0.805000000
H     3.003000000    -5.666000000    -0.349000000
H     2.329000000    -5.453000000    -1.687000000
O     3.473000000     1.028000000    -3.032000000
H     3.474000000     0.268000000    -3.614000000
H     3.225000000     0.674000000    -2.178000000
O    -2.028000000    -1.359000000     5.040000000
H    -2.329000000    -1.751000000     4.220000000
H    -1.111000000    -1.622000000     5.109000000
O    -0.119000000    -4.905000000     0.406000000
H     0.474000000    -5.030000000    -0.334000000
H    -0.963000000    -4.697000000     0.005000000
O    -3.289000000    -4.669000000     2.863000000
H    -3.648000000    -4.371000000     3.699000000
H    -2.879000000    -3.889000000     2.488000000
O    -3.070000000     4.215000000     2.605000000
H    -4.023000000     4.220000000     2.523000000
H    -2.754000000     4.075000000     1.712000000
O    -1.302000000    -4.524000000    -3.748000000
H    -1.697000000    -4.502000000    -2.876000000
H    -2.026000000    -4.336000000    -4.344000000
O    -3.285000000    -1.692000000    -1.398000000
H    -4.123000000    -1.763000000    -1.854000000
H    -2.681000000    -1.354000000    -2.059000000
O     1.239000000    -2.880000000    -5.932000000
H     0.461000000    -3.419000000    -6.073000000
H     1.033000000    -2.046000000    -6.353000000
O     5.858000000    -3.870000000    -0.056000000
H     5.090000000    -3.360000000    -0.314000000
H     5.511000000    -4.736000000     0.154000000
O    -0.704000000     2.692000000    -7.620000000
H    -0.910000000     2.417000000    -6.727000000
H    -0.926000000     1.935000000    -8.162000000
O     3.817000000     1.623000000    -6.153000000
H     4.499000000     1.888000000    -5.535000000
H     3.023000000     2.050000000    -5.831000000
O     5.985000000    -1.359000000     2.001000000
H     6.272000000    -0.744000000     2.676000000
H     6.771000000    -1.859000000     1.783000000
O     1.722000000     2.262000000    -4.578000000
H     2.180000000     1.785000000    -3.886000000
H     0.798000000     2.213000000    -4.331000000
O     0.422000000    -0.271000000    -6.774000000
H     0.866000000     0.083000000    -7.545000000
H     0.324000000     0.479000000    -6.188000000
O     3.012000000    -2.772000000     0.640000000
H     2.773000000    -3.595000000     0.213000000
H     3.293000000    -3.031000000     1.517000000
O    -4.969000000     0.915000000     3.134000000
H    -5.568000000     1.207000000     2.447000000
H    -4.124000000     0.825000000     2.692000000
O     1.058000000     5.720000000     2.033000000
H     0.334000000     5.928000000     1.442000000
H     0.637000000     5.329000000     2.799000000
O     2.026000000     3.774000000     0.005000000
H     1.723000000     4.321000000     0.730000000
H     1.257000000     3.675000000    -0.558000000
O     0.702000000    -1.829000000     4.470000000
H     0.277000000    -2.389000000     3.821000000
H     0.947000000    -2.425000000     5.177000000
O     0.731000000    -7.240000000     1.364000000
H     0.436000000    -6.351000000     1.168000000
H     1.166000000    -7.530000000     0.562000000
O    -2.967000000     4.302000000    -0.173000000
H    -2.457000000     3.928000000    -0.891000000
H    -3.781000000     3.799000000    -0.170000000
O    -4.809000000     1.781000000     0.309000000
H    -4.777000000     1.016000000    -0.265000000
H    -5.227000000     2.461000000    -0.220000000
O    -3.944000000     7.048000000    -3.117000000
H    -3.160000000     7.597000000    -3.118000000
H    -3.665000000     6.232000000    -3.534000000
O    -2.712000000     4.171000000    -3.380000000
H    -1.795000000     4.038000000    -3.143000000
H    -3.147000000     3.358000000    -3.119000000
