158
-3029.97447
C     0.029000000     1.307000000     0.576000000
H     0.148000000     2.261000000     1.084000000
C     0.336000000     0.166000000     1.293000000
H     0.665000000     0.245000000     2.326000000
C     0.295000000    -0.989000000     0.571000000
H     0.533000000    -1.863000000     1.138000000
C    -0.112000000    -1.127000000    -0.732000000
H    -0.164000000    -2.070000000    -1.270000000
C    -0.490000000     0.007000000    -1.410000000
H    -0.837000000    -0.111000000    -2.433000000
C    -0.438000000     1.287000000    -0.748000000
C    -0.732000000     2.603000000    -1.491000000
O    -0.678000000     3.662000000    -0.860000000
O    -1.339000000     2.680000000    -2.518000000
O     2.747000000    -0.358000000    -1.172000000
H     2.888000000     0.576000000    -1.019000000
H     1.869000000    -0.527000000    -0.830000000
O    -1.569000000     4.785000000     1.330000000
H    -1.175000000     4.442000000     0.528000000
H    -2.479000000     4.961000000     1.093000000
O    -1.532000000     4.242000000     5.774000000
H    -1.064000000     3.849000000     5.036000000
H    -2.412000000     3.869000000     5.725000000
O     3.720000000     2.538000000     0.725000000
H     4.364000000     3.003000000     0.190000000
H     4.197000000     2.300000000     1.520000000
O    -0.655000000     3.395000000     3.422000000
H    -1.142000000     3.837000000     2.726000000
H     0.265000000     3.522000000     3.189000000
O    -3.515000000     6.140000000    -4.493000000
H    -3.818000000     5.800000000    -5.335000000
H    -2.770000000     5.585000000    -4.264000000
O    -5.679000000     2.559000000    -0.237000000
H    -6.460000000     2.028000000    -0.394000000
H    -5.127000000     2.404000000    -1.004000000
O     0.680000000    -3.348000000     3.906000000
H     0.342000000    -4.197000000     4.192000000
H    -0.028000000    -2.972000000     3.384000000
O     2.940000000    -1.735000000     4.244000000
H     3.317000000    -1.602000000     3.374000000
H     2.469000000    -2.566000000     4.176000000
O     2.211000000     6.034000000     0.995000000
H     1.662000000     5.473000000     0.448000000
H     3.072000000     5.614000000     0.981000000
O     2.662000000     3.249000000    -2.778000000
H     2.627000000     2.322000000    -3.014000000
H     2.129000000     3.686000000    -3.442000000
O    -3.570000000    -0.148000000    -5.348000000
H    -3.599000000    -0.842000000    -4.689000000
H    -2.796000000     0.367000000    -5.118000000
O     0.986000000     5.520000000    -1.531000000
H     0.454000000     4.729000000    -1.625000000
H     1.835000000     5.284000000    -1.905000000
O    -1.896000000     1.176000000     4.343000000
H    -2.815000000     1.427000000     4.436000000
H    -1.466000000     1.962000000     4.005000000
O    -3.535000000    -1.141000000    -2.678000000
H    -3.185000000    -2.020000000    -2.535000000
H    -4.136000000    -1.000000000    -1.947000000
O    -1.187000000     4.957000000    -3.706000000
H    -0.271000000     4.903000000    -3.979000000
H    -1.339000000     4.148000000    -3.219000000
O     3.574000000    -1.370000000     1.436000000
H     4.090000000    -1.993000000     0.924000000
H     3.297000000    -0.710000000     0.801000000
O     5.176000000     1.550000000     2.664000000
H     5.133000000     1.948000000     3.534000000
H     5.057000000     0.614000000     2.824000000
O    -2.836000000     0.101000000     0.565000000
H    -3.426000000    -0.433000000     0.034000000
H    -1.959000000    -0.141000000     0.265000000
O    -0.389000000    -0.662000000     6.412000000
H    -0.341000000    -0.244000000     5.552000000
H    -0.732000000    -1.538000000     6.233000000
O     4.753000000    -3.848000000     0.803000000
H     5.696000000    -3.797000000     0.644000000
H     4.676000000    -4.304000000     1.641000000
O     1.926000000     2.951000000     2.671000000
H     2.414000000     2.726000000     1.879000000
H     1.913000000     2.142000000     3.182000000
O    -2.791000000    -2.890000000    -6.154000000
H    -2.461000000    -1.995000000    -6.068000000
H    -2.234000000    -3.407000000    -5.572000000
O    -0.785000000     6.113000000    -6.247000000
H    -0.860000000     5.604000000    -5.440000000
H    -1.420000000     5.713000000    -6.842000000
O    -4.157000000    -1.476000000     3.651000000
H    -4.415000000    -0.604000000     3.354000000
H    -3.210000000    -1.506000000     3.512000000
O    -2.874000000     4.119000000    -6.750000000
H    -3.119000000     3.682000000    -5.935000000
H    -2.893000000     3.425000000    -7.409000000
O     1.305000000    -4.721000000     0.941000000
H     1.872000000    -3.970000000     0.767000000
H     1.784000000    -5.470000000     0.585000000
O    -3.841000000    -4.003000000     1.692000000
H    -3.248000000    -3.255000000     1.757000000
H    -3.278000000    -4.767000000     1.817000000
O     5.755000000    -1.247000000     3.323000000
H     5.088000000    -1.428000000     2.661000000
H     6.531000000    -1.714000000     3.014000000
O    -0.935000000    -5.219000000     4.986000000
H    -1.712000000    -5.664000000     4.647000000
H    -0.764000000    -5.642000000     5.827000000
O    -2.605000000    -3.982000000    -1.470000000
H    -2.076000000    -4.318000000    -0.746000000
H    -3.509000000    -4.149000000    -1.203000000
O     0.981000000     8.651000000    -1.284000000
H     1.058000000     8.521000000    -0.339000000
H     0.813000000     7.776000000    -1.633000000
O     2.872000000     0.895000000    -3.846000000
H     3.339000000     0.751000000    -4.669000000
H     2.918000000     0.053000000    -3.394000000
O     0.312000000    -1.095000000    -5.662000000
H     0.648000000    -1.673000000    -4.977000000
H     0.235000000    -0.240000000    -5.237000000
O    -4.900000000     2.567000000    -5.066000000
H    -4.780000000     1.698000000    -5.449000000
H    -5.008000000     2.403000000    -4.129000000
O    -1.216000000     1.162000000    -4.568000000
H    -1.307000000     1.735000000    -3.807000000
H    -0.598000000     1.618000000    -5.139000000
O     0.403000000     2.605000000    -6.555000000
H    -0.120000000     3.164000000    -7.129000000
H     1.286000000     2.642000000    -6.923000000
O    -3.988000000     1.671000000    -2.565000000
H    -3.116000000     2.037000000    -2.422000000
H    -3.829000000     0.754000000    -2.792000000
O    -3.385000000     7.921000000    -2.548000000
H    -3.510000000     7.438000000    -3.365000000
H    -2.857000000     7.338000000    -2.003000000
O    -4.438000000     5.773000000     0.825000000
H    -4.496000000     6.715000000     0.986000000
H    -4.581000000     5.682000000    -0.117000000
O     1.681000000     0.728000000     4.382000000
H     2.051000000    -0.154000000     4.358000000
H     1.598000000     0.928000000     5.314000000
O    -1.230000000    -5.191000000     0.976000000
H    -1.239000000    -6.148000000     0.968000000
H    -0.312000000    -4.961000000     1.120000000
O    -1.928000000     6.282000000    -1.049000000
H    -1.386000000     6.410000000    -0.270000000
H    -1.570000000     5.497000000    -1.463000000
O     3.872000000    -2.797000000    -1.675000000
H     3.504000000    -1.960000000    -1.391000000
H     4.001000000    -3.289000000    -0.864000000
O    -1.571000000    -1.101000000     2.842000000
H    -1.263000000    -0.408000000     3.427000000
H    -1.995000000    -0.634000000     2.121000000
O     2.950000000     5.454000000     3.794000000
H     2.880000000     5.835000000     2.919000000
H     2.567000000     4.581000000     3.707000000
O    -1.234000000    -3.948000000    -4.167000000
H    -1.463000000    -3.693000000    -3.273000000
H    -1.248000000    -4.905000000    -4.154000000
O    -4.778000000     4.870000000    -2.073000000
H    -4.498000000     5.030000000    -2.974000000
H    -4.233000000     4.140000000    -1.779000000
