158
-3036.18643
C     0.605000000     0.640000000     1.134000000
H     1.115000000     0.831000000     2.075000000
C     0.778000000    -0.663000000     0.730000000
H     1.359000000    -1.294000000     1.398000000
C     0.167000000    -1.136000000    -0.376000000
H     0.191000000    -2.198000000    -0.590000000
C    -0.666000000    -0.335000000    -1.063000000
H    -1.126000000    -0.796000000    -1.934000000
C    -0.903000000     1.054000000    -0.732000000
H    -1.645000000     1.691000000    -1.206000000
C    -0.212000000     1.502000000     0.428000000
C    -0.456000000     2.878000000     1.066000000
O    -0.081000000     3.130000000     2.192000000
O    -0.925000000     3.744000000     0.392000000
O    -1.450000000    -4.423000000    -3.154000000
H    -1.556000000    -4.751000000    -2.261000000
H    -0.532000000    -4.157000000    -3.205000000
O     3.598000000     4.244000000     5.738000000
H     3.840000000     3.416000000     6.152000000
H     2.782000000     4.052000000     5.276000000
O     5.049000000    -1.263000000    -4.113000000
H     5.112000000    -1.370000000    -5.062000000
H     4.228000000    -0.790000000    -3.980000000
O     4.565000000     5.229000000     3.394000000
H     4.172000000     4.951000000     4.221000000
H     4.168000000     4.659000000     2.735000000
O    -2.547000000     3.249000000    -4.376000000
H    -2.143000000     3.389000000    -3.520000000
H    -2.444000000     2.311000000    -4.539000000
O     5.506000000    -2.470000000    -1.693000000
H     5.459000000    -1.979000000    -2.513000000
H     5.901000000    -1.860000000    -1.070000000
O    -0.707000000    -6.481000000    -5.039000000
H    -0.016000000    -6.848000000    -4.488000000
H    -1.183000000    -5.884000000    -4.462000000
O     5.372000000    -0.617000000     1.621000000
H     5.003000000    -1.496000000     1.536000000
H     6.306000000    -0.763000000     1.769000000
O     3.037000000    -5.673000000     1.212000000
H     2.898000000    -5.395000000     2.117000000
H     3.612000000    -6.435000000     1.282000000
O    -3.535000000     4.080000000     1.365000000
H    -3.719000000     5.019000000     1.400000000
H    -2.631000000     4.025000000     1.054000000
O     4.281000000    -3.395000000     1.876000000
H     4.155000000    -4.057000000     1.196000000
H     3.562000000    -3.544000000     2.490000000
O    -3.580000000     6.600000000    -1.915000000
H    -3.603000000     7.211000000    -1.180000000
H    -3.561000000     7.159000000    -2.692000000
O    -3.931000000     1.354000000     2.745000000
H    -3.833000000     1.073000000     3.654000000
H    -3.998000000     2.308000000     2.795000000
O     0.080000000     1.969000000     6.240000000
H    -0.157000000     2.803000000     6.647000000
H     0.089000000     1.344000000     6.965000000
O     1.314000000     3.538000000     4.438000000
H     0.938000000     2.907000000     5.051000000
H     0.826000000     3.402000000     3.625000000
O     0.180000000    -0.241000000    -5.249000000
H     0.744000000     0.089000000    -5.948000000
H     0.775000000    -0.698000000    -4.655000000
O    -4.225000000    -3.616000000    -2.959000000
H    -3.276000000    -3.664000000    -2.846000000
H    -4.507000000    -4.529000000    -3.013000000
O    -1.448000000     4.417000000    -2.117000000
H    -2.188000000     4.936000000    -1.802000000
H    -1.142000000     3.942000000    -1.344000000
O     3.424000000     1.187000000     0.965000000
H     2.807000000     0.585000000     0.549000000
H     4.230000000     0.679000000     1.057000000
O    -3.328000000    -2.946000000    -0.425000000
H    -3.879000000    -3.204000000    -1.163000000
H    -3.566000000    -2.035000000    -0.255000000
O     1.216000000    -2.164000000     4.104000000
H     0.725000000    -1.344000000     4.055000000
H     1.295000000    -2.341000000     5.041000000
O    -0.884000000     5.690000000     4.767000000
H    -0.099000000     5.877000000     4.253000000
H    -1.343000000     6.529000000     4.818000000
O    -1.795000000    -1.977000000     2.946000000
H    -2.040000000    -1.586000000     2.107000000
H    -1.238000000    -1.319000000     3.363000000
O     1.695000000    -4.338000000    -3.462000000
H     2.012000000    -4.753000000    -4.264000000
H     1.921000000    -4.957000000    -2.767000000
O    -5.737000000     2.213000000     0.200000000
H    -4.979000000     2.796000000     0.164000000
H    -6.210000000     2.484000000     0.987000000
O     1.533000000    -5.897000000    -1.122000000
H     0.662000000    -6.137000000    -0.806000000
H     2.077000000    -5.878000000    -0.335000000
O    -0.461000000    -7.377000000     0.821000000
H    -0.311000000    -7.246000000     1.757000000
H    -1.199000000    -6.804000000     0.615000000
O     2.385000000     3.920000000     1.262000000
H     2.809000000     3.067000000     1.359000000
H     1.488000000     3.777000000     1.566000000
O     2.207000000    -1.662000000    -3.974000000
H     2.606000000    -2.006000000    -4.772000000
H     1.848000000    -2.433000000    -3.534000000
O     3.713000000     1.358000000     4.762000000
H     3.019000000     0.884000000     5.220000000
H     3.838000000     0.872000000     3.947000000
O     0.079000000     6.152000000     0.145000000
H    -0.220000000     5.250000000     0.262000000
H     0.668000000     6.112000000    -0.609000000
O    -3.577000000     4.450000000     6.164000000
H    -3.104000000     4.179000000     5.377000000
H    -2.919000000     4.425000000     6.859000000
O    -0.324000000    -4.222000000     2.449000000
H     0.454000000    -4.343000000     2.994000000
H    -0.570000000    -3.307000000     2.583000000
O    -3.581000000    -6.306000000     1.002000000
H    -3.198000000    -6.114000000     1.858000000
H    -3.311000000    -5.572000000     0.450000000
O     2.880000000    -4.643000000     3.827000000
H     3.317000000    -5.302000000     4.367000000
H     2.141000000    -4.349000000     4.360000000
O    -4.487000000    -1.294000000    -4.602000000
H    -4.080000000    -2.003000000    -4.105000000
H    -5.428000000    -1.432000000    -4.489000000
O     2.972000000    -0.347000000    -1.584000000
H     2.809000000    -0.737000000    -2.443000000
H     2.518000000    -0.923000000    -0.969000000
O    -2.261000000     0.679000000    -5.299000000
H    -1.373000000     0.343000000    -5.420000000
H    -2.771000000    -0.084000000    -5.028000000
O     5.754000000     2.436000000     2.316000000
H     5.993000000     2.629000000     1.409000000
H     4.885000000     2.040000000     2.255000000
O    -2.053000000     3.466000000     4.068000000
H    -1.711000000     3.284000000     3.193000000
H    -1.657000000     4.303000000     4.311000000
O     0.113000000     5.928000000    -3.619000000
H    -0.487000000     5.543000000    -2.981000000
H     0.140000000     5.295000000    -4.336000000
O     1.169000000     6.117000000     2.893000000
H     1.010000000     5.457000000     2.217000000
H     2.083000000     5.986000000     3.145000000
O     2.677000000     3.244000000    -1.670000000
H     2.363000000     3.006000000    -0.798000000
H     2.467000000     4.174000000    -1.755000000
O    -3.489000000     6.774000000     1.500000000
H    -2.720000000     7.310000000     1.695000000
H    -4.094000000     7.372000000     1.061000000
O    -0.411000000     0.348000000     4.132000000
H    -0.029000000     0.806000000     4.880000000
H    -0.734000000     1.047000000     3.563000000
O    -3.935000000    -0.242000000     0.591000000
H    -3.914000000     0.080000000     1.492000000
H    -4.066000000     0.543000000     0.059000000
O    -1.390000000    -4.715000000    -0.138000000
H    -1.836000000    -3.870000000    -0.177000000
H    -0.792000000    -4.637000000     0.605000000
O    -0.910000000     8.277000000     1.656000000
H    -0.579000000     9.093000000     1.282000000
H    -0.457000000     7.589000000     1.170000000
