158
-3003.21025
C     0.960000000     0.257000000     1.126000000
H     1.662000000     0.360000000     1.949000000
C     0.913000000    -0.911000000     0.373000000
H     1.502000000    -1.753000000     0.726000000
C     0.091000000    -0.961000000    -0.702000000
H    -0.015000000    -1.889000000    -1.303000000
C    -0.871000000     0.047000000    -0.994000000
H    -1.528000000    -0.096000000    -1.848000000
C    -0.823000000     1.208000000    -0.247000000
H    -1.503000000     2.018000000    -0.498000000
C     0.050000000     1.316000000     0.830000000
C    -0.036000000     2.520000000     1.794000000
O     0.832000000     2.759000000     2.599000000
O    -0.922000000     3.339000000     1.615000000
O    -1.228000000    -5.524000000    -3.039000000
H    -1.260000000    -6.357000000    -3.509000000
H    -0.383000000    -5.535000000    -2.589000000
O    -1.567000000    -2.525000000    -3.460000000
H    -2.168000000    -2.205000000    -4.132000000
H    -1.509000000    -3.467000000    -3.619000000
O     4.366000000     4.081000000     4.405000000
H     4.426000000     3.631000000     5.248000000
H     4.809000000     4.918000000     4.549000000
O     3.406000000    -1.891000000    -4.725000000
H     3.640000000    -2.661000000    -5.244000000
H     2.493000000    -2.037000000    -4.479000000
O    -1.977000000    -8.052000000    -1.397000000
H    -1.491000000    -7.503000000    -0.782000000
H    -1.301000000    -8.462000000    -1.938000000
O     5.967000000     2.094000000     1.038000000
H     5.195000000     2.097000000     1.605000000
H     5.828000000     1.353000000     0.449000000
O     4.785000000    -2.810000000    -0.807000000
H     4.200000000    -2.635000000    -1.544000000
H     4.199000000    -3.031000000    -0.083000000
O    -3.368000000     2.498000000     2.332000000
H    -3.298000000     1.659000000     2.788000000
H    -2.462000000     2.785000000     2.217000000
O    -5.062000000    -4.204000000     1.758000000
H    -4.128000000    -4.214000000     1.549000000
H    -5.130000000    -4.701000000     2.573000000
O     2.333000000     7.624000000     2.174000000
H     2.701000000     7.892000000     1.332000000
H     2.006000000     6.738000000     2.021000000
O    -3.066000000     0.510000000     4.022000000
H    -3.166000000    -0.193000000     4.664000000
H    -3.343000000     1.299000000     4.487000000
O     1.237000000     3.281000000     6.653000000
H     0.708000000     3.880000000     6.126000000
H     1.596000000     3.829000000     7.350000000
O     1.066000000     1.110000000     4.797000000
H     1.419000000     1.678000000     5.482000000
H     0.980000000     1.680000000     4.033000000
O    -2.829000000     1.950000000    -4.362000000
H    -2.139000000     1.303000000    -4.509000000
H    -2.376000000     2.702000000    -3.982000000
O     1.269000000    -2.778000000    -3.540000000
H     1.344000000    -3.433000000    -2.847000000
H     0.373000000    -2.449000000    -3.462000000
O    -1.577000000     4.325000000    -3.188000000
H    -1.407000000     5.262000000    -3.289000000
H    -2.362000000     4.282000000    -2.642000000
O     3.625000000    -3.649000000     2.156000000
H     4.345000000    -3.072000000     2.409000000
H     3.486000000    -4.209000000     2.920000000
O     2.576000000     1.488000000    -1.273000000
H     3.019000000     1.214000000    -2.076000000
H     1.969000000     0.774000000    -1.080000000
O    -3.829000000    -2.458000000    -0.192000000
H    -2.958000000    -2.222000000     0.127000000
H    -4.377000000    -1.704000000     0.026000000
O     0.567000000    -1.457000000     5.379000000
H     0.896000000    -0.628000000     5.029000000
H     1.355000000    -1.970000000     5.559000000
O    -5.896000000    -0.666000000    -0.134000000
H    -5.575000000    -0.723000000     0.766000000
H    -5.909000000     0.272000000    -0.325000000
O    -0.505000000     7.002000000     3.100000000
H    -0.257000000     7.697000000     2.490000000
H    -0.867000000     7.466000000     3.856000000
O    -1.588000000    -1.609000000     1.550000000
H    -0.789000000    -1.392000000     1.070000000
H    -2.152000000    -0.844000000     1.433000000
O    -0.528000000    -3.849000000    -7.122000000
H    -1.324000000    -3.746000000    -6.601000000
H    -0.236000000    -2.953000000    -7.293000000
O     3.891000000     4.086000000    -0.290000000
H     4.054000000     3.855000000     0.624000000
H     3.608000000     3.267000000    -0.697000000
O     5.514000000    -2.013000000     3.222000000
H     6.319000000    -2.279000000     2.777000000
H     5.755000000    -1.973000000     4.148000000
O     1.428000000    -4.865000000    -1.921000000
H     2.196000000    -5.341000000    -2.237000000
H     1.411000000    -5.035000000    -0.979000000
O    -4.799000000     5.127000000     2.616000000
H    -4.255000000     5.872000000     2.359000000
H    -4.300000000     4.359000000     2.338000000
O     3.758000000    -6.196000000    -2.429000000
H     3.973000000    -6.007000000    -3.342000000
H     4.590000000    -6.464000000    -2.038000000
O     1.707000000     4.989000000     1.245000000
H     2.601000000     4.757000000     0.997000000
H     1.421000000     4.272000000     1.812000000
O    -0.807000000     0.451000000    -5.086000000
H    -0.122000000     0.879000000    -4.572000000
H    -0.332000000    -0.123000000    -5.687000000
O     4.858000000     0.913000000     4.369000000
H     4.942000000     0.054000000     3.955000000
H     4.090000000     1.305000000     3.954000000
O    -0.922000000     5.750000000     0.355000000
H    -1.299000000     4.944000000     0.706000000
H     0.015000000     5.675000000     0.535000000
O    -2.186000000     5.357000000     5.958000000
H    -1.849000000     4.793000000     6.654000000
H    -1.498000000     5.353000000     5.293000000
O    -2.863000000    -3.295000000     3.802000000
H    -1.986000000    -3.113000000     3.466000000
H    -3.440000000    -2.736000000     3.281000000
O    -3.403000000    -5.211000000    -1.345000000
H    -2.688000000    -5.644000000    -1.813000000
H    -3.221000000    -4.277000000    -1.440000000
O     3.312000000     0.786000000    -4.028000000
H     2.647000000     1.254000000    -4.533000000
H     3.256000000    -0.118000000    -4.339000000
O    -2.923000000    -1.907000000    -5.855000000
H    -3.857000000    -2.115000000    -5.869000000
H    -2.881000000    -0.980000000    -6.091000000
O    -5.131000000     0.699000000    -5.232000000
H    -4.302000000     1.068000000    -4.927000000
H    -5.448000000     0.179000000    -4.493000000
O     3.610000000     2.463000000     2.395000000
H     2.653000000     2.484000000     2.419000000
H     3.880000000     2.992000000     3.146000000
O     0.115000000     4.677000000     4.432000000
H     0.203000000     3.984000000     3.777000000
H    -0.014000000     5.475000000     3.919000000
O    -0.939000000    -6.560000000     0.610000000
H    -0.079000000    -6.196000000     0.401000000
H    -1.437000000    -5.818000000     0.953000000
O     1.457000000     4.564000000    -2.404000000
H     0.547000000     4.268000000    -2.428000000
H     1.878000000     3.990000000    -1.764000000
O    -3.366000000     7.183000000     1.517000000
H    -2.694000000     6.577000000     1.206000000
H    -3.199000000     7.993000000     1.035000000
O    -4.686000000     1.993000000    -0.183000000
H    -4.133000000     2.056000000     0.596000000
H    -4.969000000     2.892000000    -0.349000000
O     1.367000000    -5.219000000     1.094000000
H     1.196000000    -5.500000000     1.993000000
H     2.224000000    -4.795000000     1.134000000
O    -2.602000000     6.750000000    -1.505000000
H    -2.348000000     7.631000000    -1.230000000
H    -1.908000000     6.183000000    -1.167000000
O    -3.068000000    -4.828000000    -5.432000000
H    -3.494000000    -4.175000000    -4.877000000
H    -2.865000000    -5.551000000    -4.838000000
