158
-3042.88822
C    -0.793000000    -0.163000000     1.220000000
H    -1.269000000    -0.403000000     2.167000000
C     0.355000000    -0.886000000     0.869000000
H     0.672000000    -1.659000000     1.565000000
C     1.067000000    -0.649000000    -0.282000000
H     1.989000000    -1.218000000    -0.579000000
C     0.555000000     0.340000000    -1.103000000
H     1.106000000     0.610000000    -2.000000000
C    -0.738000000     0.964000000    -0.824000000
H    -1.103000000     1.723000000    -1.511000000
C    -1.375000000     0.746000000     0.336000000
C    -2.634000000     1.445000000     0.700000000
O    -3.337000000     1.037000000     1.618000000
O    -2.773000000     2.587000000     0.287000000
O    -6.220000000    -3.287000000     1.900000000
H    -5.937000000    -2.754000000     1.157000000
H    -6.958000000    -2.804000000     2.274000000
O    -0.980000000     5.817000000    -4.052000000
H    -0.802000000     6.622000000    -3.565000000
H    -1.074000000     5.145000000    -3.377000000
O     5.017000000    -0.143000000    -0.962000000
H     5.840000000    -0.424000000    -1.362000000
H     4.962000000     0.792000000    -1.158000000
O    -2.711000000     0.640000000     4.158000000
H    -2.937000000     0.889000000     3.261000000
H    -3.545000000     0.383000000     4.552000000
O     6.449000000    -0.931000000    -3.820000000
H     6.219000000    -0.025000000    -4.026000000
H     6.755000000    -1.295000000    -4.650000000
O    -1.499000000     4.418000000     1.822000000
H    -1.873000000     3.717000000     1.287000000
H    -1.691000000     5.219000000     1.335000000
O    -5.351000000    -0.576000000     1.274000000
H    -4.712000000     0.129000000     1.171000000
H    -6.130000000    -0.263000000     0.814000000
O     7.933000000    -2.366000000     0.597000000
H     7.286000000    -2.682000000    -0.034000000
H     8.283000000    -1.568000000     0.202000000
O     4.464000000    -2.319000000     1.302000000
H     3.989000000    -1.758000000     1.914000000
H     4.559000000    -1.787000000     0.513000000
O     3.610000000    -2.060000000    -4.015000000
H     3.304000000    -1.159000000    -4.124000000
H     4.528000000    -1.971000000    -3.758000000
O     1.177000000    -5.860000000    -1.632000000
H     0.918000000    -6.498000000    -0.967000000
H     2.063000000    -5.599000000    -1.381000000
O    -4.079000000     2.129000000    -2.426000000
H    -3.854000000     1.199000000    -2.409000000
H    -3.927000000     2.428000000    -1.529000000
O     2.293000000    -4.099000000     1.397000000
H     2.755000000    -3.260000000     1.393000000
H     2.399000000    -4.427000000     2.290000000
O     3.052000000     1.221000000    -3.863000000
H     3.555000000     1.988000000    -3.591000000
H     2.145000000     1.441000000    -3.650000000
O    -0.998000000    -2.473000000    -3.045000000
H    -1.191000000    -3.339000000    -3.403000000
H    -0.950000000    -2.610000000    -2.099000000
O    -4.933000000    -0.962000000     4.429000000
H    -5.185000000    -0.595000000     3.582000000
H    -4.576000000    -1.825000000     4.220000000
O     1.497000000     3.453000000    -2.627000000
H     0.763000000     3.623000000    -2.037000000
H     1.889000000     4.313000000    -2.777000000
O    -4.651000000     4.804000000    -2.698000000
H    -4.244000000     3.956000000    -2.878000000
H    -4.878000000     4.768000000    -1.769000000
O     3.744000000    -4.246000000    -1.991000000
H     4.223000000    -4.730000000    -2.664000000
H     3.758000000    -3.338000000    -2.293000000
O    -2.572000000    -3.002000000     0.208000000
H    -1.872000000    -3.452000000     0.680000000
H    -2.518000000    -2.095000000     0.507000000
O     6.680000000    -2.825000000    -1.729000000
H     6.604000000    -2.177000000    -2.430000000
H     6.071000000    -3.520000000    -1.980000000
O     3.269000000    -4.764000000     3.757000000
H     3.713000000    -4.141000000     4.333000000
H     3.979000000    -5.234000000     3.319000000
O    -4.835000000     4.244000000    -0.050000000
H    -4.314000000     3.525000000     0.309000000
H    -5.395000000     4.519000000     0.676000000
O    -6.281000000     2.392000000    -4.003000000
H    -5.539000000     2.260000000    -3.412000000
H    -6.616000000     1.510000000    -4.167000000
O    -6.579000000     4.187000000     2.084000000
H    -5.969000000     3.567000000     2.483000000
H    -7.246000000     3.636000000     1.673000000
O    -3.508000000     0.910000000    -5.935000000
H    -2.720000000     1.406000000    -5.710000000
H    -3.606000000     0.279000000    -5.223000000
O    -3.945000000    -3.439000000     4.264000000
H    -3.561000000    -4.150000000     3.751000000
H    -4.024000000    -3.797000000     5.149000000
O    -2.846000000     6.224000000     0.251000000
H    -3.168000000     6.955000000    -0.275000000
H    -3.557000000     5.583000000     0.230000000
O     4.149000000     2.576000000    -1.302000000
H     5.066000000     2.834000000    -1.203000000
H     3.717000000     3.357000000    -1.647000000
O    -0.634000000     1.698000000    -5.941000000
H    -0.318000000     1.265000000    -5.147000000
H    -0.478000000     1.061000000    -6.639000000
O     1.590000000     0.883000000     3.613000000
H     1.761000000     1.176000000     2.718000000
H     1.997000000     0.018000000     3.664000000
O     5.058000000    -5.602000000     0.176000000
H     5.234000000    -5.269000000     1.056000000
H     4.400000000    -5.004000000    -0.179000000
O    -0.399000000    -4.245000000     1.399000000
H    -0.496000000    -4.521000000     2.310000000
H     0.543000000    -4.125000000     1.284000000
O     1.757000000    -2.443000000    -5.908000000
H     2.384000000    -2.573000000    -5.197000000
H     2.108000000    -2.959000000    -6.634000000
O    -0.664000000     2.020000000     5.445000000
H     0.202000000     1.895000000     5.056000000
H    -1.181000000     1.283000000     5.120000000
O    -5.158000000     2.045000000     3.168000000
H    -4.661000000     2.304000000     3.944000000
H    -4.491000000     1.809000000     2.524000000
O    -2.685000000     3.808000000     4.331000000
H    -2.153000000     4.073000000     3.581000000
H    -2.090000000     3.291000000     4.875000000
O     2.638000000     1.628000000     0.726000000
H     3.065000000     1.914000000    -0.081000000
H     2.332000000     0.742000000     0.534000000
O     3.129000000    -1.214000000     3.463000000
H     3.742000000    -1.764000000     3.950000000
H     2.288000000    -1.664000000     3.543000000
O    -1.099000000     4.460000000    -1.395000000
H    -1.311000000     5.300000000    -0.987000000
H    -1.662000000     3.828000000    -0.950000000
O    -7.665000000     0.440000000     3.548000000
H    -6.751000000     0.676000000     3.389000000
H    -7.991000000     1.123000000     4.133000000
O     1.373000000     4.834000000     0.926000000
H     0.746000000     4.111000000     0.946000000
H     0.990000000     5.465000000     0.317000000
O     4.630000000     2.437000000     2.340000000
H     4.569000000     1.981000000     3.180000000
H     3.916000000     2.072000000     1.817000000
O     0.175000000    -0.435000000    -4.183000000
H    -0.422000000    -0.977000000    -3.667000000
H     0.774000000    -1.060000000    -4.590000000
O    -3.185000000    -0.303000000    -2.751000000
H    -3.736000000    -0.951000000    -3.190000000
H    -2.341000000    -0.741000000    -2.643000000
O    -1.068000000    -5.211000000    -3.165000000
H    -0.783000000    -5.750000000    -3.903000000
H    -0.270000000    -5.053000000    -2.662000000
O    -1.587000000    -2.036000000     4.933000000
H    -1.799000000    -1.126000000     4.726000000
H    -2.365000000    -2.529000000     4.670000000
O     1.044000000    -2.785000000     4.275000000
H     1.637000000    -2.917000000     5.015000000
H     0.230000000    -2.476000000     4.674000000
