158
-3032.42765
C    -0.348000000     0.125000000     1.448000000
H    -0.572000000     0.234000000     2.506000000
C     0.417000000    -0.871000000     0.868000000
H     0.815000000    -1.659000000     1.503000000
C     0.630000000    -0.946000000    -0.506000000
H     1.236000000    -1.780000000    -0.833000000
C     0.183000000     0.065000000    -1.308000000
H     0.429000000     0.166000000    -2.362000000
C    -0.593000000     1.113000000    -0.734000000
H    -0.779000000     1.981000000    -1.362000000
C    -0.892000000     1.131000000     0.652000000
C    -1.761000000     2.257000000     1.209000000
O    -2.203000000     2.222000000     2.318000000
O    -1.953000000     3.201000000     0.493000000
O    -1.682000000     7.411000000    -1.165000000
H    -1.139000000     8.170000000    -1.376000000
H    -2.098000000     7.637000000    -0.333000000
O     1.131000000     5.305000000    -3.073000000
H     1.827000000     5.829000000    -2.676000000
H     0.757000000     4.812000000    -2.343000000
O     6.296000000    -1.449000000     0.078000000
H     6.413000000    -2.117000000    -0.598000000
H     5.826000000    -0.741000000    -0.364000000
O    -1.398000000     1.923000000     4.893000000
H    -1.682000000     2.206000000     4.024000000
H    -1.904000000     1.128000000     5.063000000
O    -0.797000000     4.542000000     2.918000000
H    -1.470000000     4.160000000     2.356000000
H    -0.410000000     5.239000000     2.388000000
O    -4.127000000    -0.555000000     1.851000000
H    -3.537000000     0.194000000     1.938000000
H    -4.831000000    -0.379000000     2.476000000
O     4.581000000    -2.934000000     1.721000000
H     4.502000000    -2.510000000     2.576000000
H     4.774000000    -2.218000000     1.115000000
O     0.151000000    -4.053000000     3.841000000
H    -0.523000000    -3.943000000     3.171000000
H     0.946000000    -4.263000000     3.350000000
O     3.121000000    -2.717000000    -4.521000000
H     3.882000000    -3.118000000    -4.941000000
H     3.192000000    -1.786000000    -4.734000000
O     0.629000000     6.576000000     1.449000000
H     1.261000000     6.891000000     2.095000000
H     0.515000000     7.311000000     0.847000000
O    -3.581000000     2.297000000    -2.067000000
H    -3.492000000     1.384000000    -1.796000000
H    -3.144000000     2.796000000    -1.376000000
O     2.402000000    -4.580000000     1.530000000
H     3.130000000    -3.958000000     1.531000000
H     2.728000000    -5.331000000     2.026000000
O     3.260000000    -0.164000000    -5.416000000
H     4.175000000     0.017000000    -5.631000000
H     2.956000000     0.629000000    -4.975000000
O     0.860000000    -3.197000000    -3.335000000
H     0.581000000    -4.079000000    -3.581000000
H     1.623000000    -3.025000000    -3.887000000
O    -3.393000000    -0.096000000     5.836000000
H    -4.120000000     0.525000000     5.793000000
H    -3.811000000    -0.957000000     5.810000000
O     2.468000000     2.239000000    -3.910000000
H     1.815000000     2.296000000    -3.212000000
H     3.017000000     3.014000000    -3.787000000
O    -3.733000000     6.021000000    -2.508000000
H    -2.872000000     6.294000000    -2.192000000
H    -4.073000000     5.452000000    -1.817000000
O     4.736000000    -5.053000000    -3.130000000
H     4.762000000    -4.806000000    -4.054000000
H     3.846000000    -5.379000000    -2.994000000
O    -0.294000000     2.156000000     7.281000000
H    -0.820000000     2.324000000     6.499000000
H     0.561000000     1.890000000     6.942000000
O    -1.540000000    -3.359000000    -2.416000000
H    -0.659000000    -3.053000000    -2.632000000
H    -1.691000000    -4.092000000    -3.013000000
O    -2.488000000    -2.704000000     2.506000000
H    -1.951000000    -2.766000000     1.715000000
H    -3.097000000    -1.988000000     2.326000000
O     6.997000000    -2.905000000    -2.042000000
H     7.387000000    -2.702000000    -2.892000000
H     6.365000000    -3.599000000    -2.228000000
O    -4.203000000     4.521000000    -0.022000000
H    -3.357000000     4.074000000    -0.003000000
H    -4.714000000     4.096000000     0.666000000
O    -6.456000000     4.281000000    -1.714000000
H    -5.735000000     4.404000000    -1.096000000
H    -6.212000000     3.503000000    -2.215000000
O    -5.636000000     4.111000000     2.296000000
H    -4.980000000     4.014000000     2.986000000
H    -6.359000000     3.547000000     2.571000000
O    -3.795000000     1.128000000    -4.492000000
H    -3.510000000     1.558000000    -3.685000000
H    -4.476000000     0.517000000    -4.210000000
O     0.832000000    -6.862000000    -0.317000000
H     1.033000000    -6.142000000     0.280000000
H     0.251000000    -6.474000000    -0.972000000
O    -3.181000000     7.214000000     1.223000000
H    -3.952000000     7.773000000     1.313000000
H    -3.502000000     6.434000000     0.771000000
O     3.285000000     0.239000000     0.287000000
H     3.339000000     0.679000000    -0.562000000
H     2.447000000    -0.223000000     0.264000000
O    -1.705000000     2.759000000    -5.579000000
H    -1.371000000     1.897000000    -5.329000000
H    -2.632000000     2.612000000    -5.764000000
O    -3.697000000    -2.898000000    -0.847000000
H    -3.894000000    -3.726000000    -0.410000000
H    -2.894000000    -3.072000000    -1.339000000
O     1.949000000     3.958000000     2.498000000
H     1.139000000     3.831000000     2.992000000
H     1.665000000     4.337000000     1.666000000
O    -0.484000000    -3.855000000     0.610000000
H     0.383000000    -3.451000000     0.632000000
H    -0.897000000    -3.491000000    -0.173000000
O     0.061000000     4.644000000    -5.625000000
H    -0.612000000     3.977000000    -5.492000000
H     0.452000000     4.766000000    -4.760000000
O    -4.068000000     3.204000000     4.457000000
H    -3.602000000     3.745000000     5.095000000
H    -3.375000000     2.758000000     3.970000000
O    -0.384000000     5.076000000     5.835000000
H    -0.501000000     4.958000000     4.893000000
H     0.517000000     4.797000000     6.002000000
O     3.965000000     2.249000000     3.800000000
H     3.390000000     2.656000000     3.151000000
H     4.471000000     1.607000000     3.303000000
O     4.183000000    -1.262000000     3.902000000
H     4.734000000    -1.044000000     4.654000000
H     3.331000000    -1.472000000     4.283000000
O    -3.146000000     5.269000000     5.965000000
H    -2.251000000     5.113000000     5.665000000
H    -3.060000000     5.431000000     6.905000000
O    -2.009000000    -5.884000000    -3.605000000
H    -2.177000000    -6.587000000    -2.978000000
H    -1.097000000    -6.012000000    -3.868000000
O    -0.485000000     4.719000000    -0.959000000
H    -0.752000000     5.540000000    -0.546000000
H    -1.053000000     4.057000000    -0.565000000
O    -5.760000000     2.184000000     6.175000000
H    -5.155000000     2.586000000     5.553000000
H    -6.583000000     2.656000000     6.048000000
O     5.182000000     0.852000000     1.985000000
H     5.248000000     0.126000000     2.604000000
H     4.529000000     0.564000000     1.347000000
O    -0.940000000    -0.496000000    -5.645000000
H    -0.350000000    -0.841000000    -4.974000000
H    -0.361000000    -0.061000000    -6.271000000
O    -4.119000000    -0.161000000    -0.915000000
H    -4.569000000    -0.044000000    -0.079000000
H    -3.993000000    -1.107000000    -0.990000000
O     0.612000000    -6.036000000    -4.256000000
H     0.887000000    -5.893000000    -5.162000000
H     1.384000000    -6.405000000    -3.827000000
O    -0.488000000    -1.206000000     6.776000000
H    -0.416000000    -1.291000000     7.727000000
H    -1.148000000    -0.526000000     6.646000000
O     1.596000000    -2.121000000     5.376000000
H     1.123000000    -2.927000000     5.170000000
H     0.922000000    -1.525000000     5.704000000
