158
-3001.58273
C     0.653000000    -0.897000000     0.989000000
H     1.170000000    -1.509000000     1.723000000
C     0.892000000     0.471000000     0.705000000
H     1.745000000     0.973000000     1.154000000
C     0.146000000     1.174000000    -0.209000000
H     0.435000000     2.198000000    -0.405000000
C    -0.913000000     0.611000000    -0.769000000
H    -1.349000000     1.213000000    -1.562000000
C    -1.134000000    -0.751000000    -0.619000000
H    -1.892000000    -1.159000000    -1.284000000
C    -0.334000000    -1.516000000     0.331000000
C    -0.428000000    -3.028000000     0.478000000
O    -1.101000000    -3.571000000    -0.386000000
O     0.235000000    -3.657000000     1.266000000
O     6.566000000     4.200000000    -1.304000000
H     7.185000000     3.733000000    -1.866000000
H     5.755000000     3.696000000    -1.370000000
O     1.469000000    -0.506000000    -2.890000000
H     2.089000000    -1.135000000    -3.258000000
H     0.936000000    -1.021000000    -2.284000000
O    -4.513000000     4.343000000    -3.475000000
H    -3.672000000     4.251000000    -3.028000000
H    -5.163000000     4.093000000    -2.819000000
O    -0.012000000     3.907000000     2.079000000
H     0.900000000     3.729000000     1.848000000
H    -0.352000000     4.412000000     1.341000000
O     1.414000000    -3.965000000     3.570000000
H     1.152000000    -3.524000000     4.378000000
H     0.693000000    -3.800000000     2.962000000
O     5.814000000     1.024000000    -3.535000000
H     5.366000000     1.290000000    -2.732000000
H     5.114000000     0.930000000    -4.181000000
O    -1.507000000    -7.112000000     4.246000000
H    -1.510000000    -7.178000000     5.201000000
H    -0.581000000    -7.147000000     4.006000000
O    -1.211000000    -3.028000000    -2.863000000
H    -2.144000000    -3.205000000    -2.982000000
H    -1.081000000    -3.051000000    -1.915000000
O    -4.023000000    -6.209000000     2.737000000
H    -3.390000000    -6.494000000     3.396000000
H    -3.605000000    -5.461000000     2.311000000
O    -5.108000000     2.064000000     2.335000000
H    -4.807000000     1.598000000     1.554000000
H    -5.840000000     2.598000000     2.028000000
O     5.293000000     3.276000000     2.503000000
H     5.474000000     2.434000000     2.920000000
H     6.158000000     3.650000000     2.333000000
O    -0.457000000     4.537000000     5.147000000
H     0.221000000     4.073000000     4.655000000
H    -1.280000000     4.245000000     4.755000000
O    -3.473000000     4.528000000     1.562000000
H    -2.715000000     4.985000000     1.925000000
H    -3.284000000     3.601000000     1.701000000
O     1.529000000     2.383000000     4.196000000
H     2.101000000     2.974000000     4.685000000
H     2.117000000     1.711000000     3.852000000
O     4.017000000     2.277000000    -1.917000000
H     3.128000000     2.223000000    -2.268000000
H     3.982000000     1.780000000    -1.100000000
O     1.662000000     5.356000000    -1.261000000
H     2.039000000     4.627000000    -0.768000000
H     0.716000000     5.248000000    -1.162000000
O    -1.302000000    -8.945000000     1.554000000
H    -0.932000000    -8.074000000     1.409000000
H    -2.030000000    -9.002000000     0.935000000
O    -0.162000000    -2.325000000    -5.408000000
H    -0.372000000    -2.614000000    -4.520000000
H    -0.283000000    -3.105000000    -5.948000000
O     4.901000000    -2.926000000    -0.168000000
H     3.959000000    -3.087000000    -0.113000000
H     5.220000000    -3.582000000    -0.787000000
O    -4.092000000    -3.112000000    -3.646000000
H    -4.021000000    -3.414000000    -4.551000000
H    -4.830000000    -3.604000000    -3.286000000
O    -3.730000000     1.390000000    -5.683000000
H    -4.365000000     1.130000000    -5.016000000
H    -3.199000000     0.607000000    -5.826000000
O     3.534000000     0.561000000     3.854000000
H     3.305000000    -0.138000000     4.467000000
H     4.444000000     0.382000000     3.617000000
O     3.161000000    -7.166000000     0.456000000
H     3.804000000    -7.150000000     1.165000000
H     2.896000000    -6.252000000     0.354000000
O    -2.839000000    -6.715000000    -1.551000000
H    -3.369000000    -7.054000000    -2.273000000
H    -3.421000000    -6.110000000    -1.092000000
O    -1.183000000     1.336000000     2.596000000
H    -0.886000000     0.780000000     1.875000000
H    -0.693000000     2.151000000     2.488000000
O    -0.934000000     5.284000000    -0.148000000
H    -1.518000000     4.697000000    -0.629000000
H    -1.410000000     6.113000000    -0.104000000
O    -3.078000000     3.555000000    -1.293000000
H    -3.332000000     4.169000000    -0.605000000
H    -3.411000000     2.709000000    -0.995000000
O     0.021000000    -6.890000000    -1.626000000
H    -0.926000000    -6.916000000    -1.760000000
H     0.126000000    -6.664000000    -0.702000000
O    -4.830000000    -0.899000000    -1.851000000
H    -5.276000000    -0.326000000    -2.475000000
H    -4.408000000    -1.564000000    -2.396000000
O    -1.154000000    -4.040000000     6.117000000
H    -0.983000000    -3.915000000     5.184000000
H    -0.679000000    -3.327000000     6.545000000
O     2.538000000    -4.308000000    -0.030000000
H     2.333000000    -4.256000000    -0.963000000
H     1.703000000    -4.145000000     0.409000000
O     1.279000000    -4.573000000    -2.610000000
H     0.433000000    -4.177000000    -2.819000000
H     1.060000000    -5.443000000    -2.275000000
O     1.233000000    -6.966000000     4.105000000
H     1.313000000    -6.016000000     4.018000000
H     1.995000000    -7.223000000     4.623000000
O    -1.469000000     6.482000000     3.155000000
H    -0.626000000     6.194000000     2.804000000
H    -1.644000000     7.310000000     2.707000000
O    -0.782000000     5.978000000    -4.229000000
H    -0.709000000     6.538000000    -3.456000000
H     0.121000000     5.859000000    -4.524000000
O    -5.744000000    -2.985000000    -0.127000000
H    -5.912000000    -2.499000000     0.681000000
H    -5.545000000    -2.310000000    -0.775000000
O    -0.753000000    -6.351000000     0.935000000
H    -1.614000000    -6.217000000     0.540000000
H    -0.392000000    -5.469000000     1.027000000
O     5.021000000    -0.136000000     0.337000000
H     4.351000000    -0.814000000     0.431000000
H     5.348000000     0.002000000     1.225000000
O     2.560000000     3.465000000     1.306000000
H     2.942000000     4.338000000     1.214000000
H     3.314000000     2.881000000     1.382000000
O    -3.276000000    -4.305000000     0.915000000
H    -2.499000000    -4.011000000     0.441000000
H    -3.955000000    -3.673000000     0.679000000
O     3.081000000     4.048000000    -4.861000000
H     2.436000000     4.622000000    -5.273000000
H     2.574000000     3.522000000    -4.242000000
O    -0.792000000     3.138000000    -4.567000000
H    -1.253000000     3.977000000    -4.580000000
H    -0.921000000     2.781000000    -5.445000000
O    -1.527000000    -3.008000000     3.632000000
H    -1.333000000    -3.448000000     2.804000000
H    -2.473000000    -2.865000000     3.610000000
O     2.757000000     7.699000000    -2.500000000
H     2.723000000     7.836000000    -3.447000000
H     2.401000000     6.819000000    -2.373000000
O     1.491000000     2.121000000    -3.588000000
H     1.333000000     1.269000000    -3.182000000
H     0.619000000     2.503000000    -3.691000000
O    -3.533000000     0.354000000     3.726000000
H    -2.683000000     0.528000000     3.321000000
H    -4.076000000     1.101000000     3.473000000
O    -3.988000000     0.960000000    -0.114000000
H    -3.044000000     0.804000000    -0.125000000
H    -4.357000000     0.229000000    -0.610000000
O     4.030000000    -3.869000000     2.757000000
H     3.943000000    -3.581000000     1.848000000
H     3.135000000    -3.865000000     3.097000000
