158
-3034.89959
C    -0.901000000     0.388000000     1.072000000
H    -1.666000000     0.561000000     1.825000000
C     0.187000000    -0.432000000     1.154000000
H     0.422000000    -0.960000000     2.074000000
C     1.076000000    -0.647000000     0.104000000
H     1.931000000    -1.333000000     0.174000000
C     0.814000000     0.022000000    -1.113000000
H     1.569000000    -0.042000000    -1.893000000
C    -0.326000000     0.861000000    -1.171000000
H    -0.530000000     1.145000000    -2.200000000
C    -1.223000000     0.993000000    -0.116000000
C    -2.537000000     1.760000000    -0.242000000
O    -3.297000000     1.825000000     0.733000000
O    -2.977000000     2.114000000    -1.317000000
O     0.287000000     5.267000000    -1.204000000
H     0.173000000     5.555000000    -0.298000000
H     0.311000000     6.078000000    -1.712000000
O     4.639000000    -0.123000000    -0.540000000
H     4.624000000    -0.856000000    -1.155000000
H     4.256000000    -0.476000000     0.263000000
O    -3.440000000     1.883000000     3.299000000
H    -3.330000000     1.949000000     2.351000000
H    -4.382000000     1.766000000     3.423000000
O    -0.926000000     5.462000000     1.480000000
H    -0.514000000     4.832000000     2.071000000
H    -0.328000000     6.209000000     1.471000000
O    -7.243000000     1.527000000    -1.410000000
H    -7.950000000     1.413000000    -2.045000000
H    -6.808000000     2.335000000    -1.678000000
O     6.575000000    -2.187000000     0.804000000
H     6.767000000    -1.251000000     0.871000000
H     5.780000000    -2.230000000     0.272000000
O     3.847000000    -1.081000000     2.131000000
H     4.491000000    -1.048000000     2.838000000
H     3.301000000    -1.840000000     2.339000000
O     6.161000000    -3.662000000     3.314000000
H     6.300000000    -3.113000000     2.543000000
H     7.001000000    -3.649000000     3.773000000
O     5.548000000    -0.577000000     4.091000000
H     5.135000000    -0.478000000     4.949000000
H     6.485000000    -0.630000000     4.282000000
O    -1.989000000    -2.966000000     3.126000000
H    -1.366000000    -2.550000000     3.722000000
H    -1.758000000    -2.625000000     2.262000000
O     4.229000000     1.664000000    -4.015000000
H     4.070000000     1.905000000    -3.102000000
H     5.160000000     1.841000000    -4.151000000
O     3.421000000    -0.843000000    -6.370000000
H     2.661000000    -0.765000000    -5.794000000
H     3.995000000    -0.123000000    -6.108000000
O    -3.297000000     1.435000000    -3.770000000
H    -4.059000000     0.862000000    -3.864000000
H    -3.216000000     1.573000000    -2.826000000
O     2.368000000    -3.421000000     2.800000000
H     2.486000000    -4.352000000     2.987000000
H     1.759000000    -3.116000000     3.474000000
O     2.526000000     3.301000000    -5.399000000
H     3.143000000     2.628000000    -5.111000000
H     1.871000000     3.338000000    -4.702000000
O    -1.660000000    -1.896000000    -4.258000000
H    -1.131000000    -2.457000000    -4.825000000
H    -1.338000000    -2.077000000    -3.375000000
O    -6.017000000     0.941000000     3.704000000
H    -6.507000000     0.528000000     2.994000000
H    -6.628000000     0.956000000     4.441000000
O     1.089000000     3.414000000    -3.050000000
H     1.828000000     3.245000000    -2.466000000
H     0.495000000     3.960000000    -2.534000000
O    -5.774000000     3.581000000    -2.202000000
H    -5.044000000     3.522000000    -1.586000000
H    -5.393000000     3.344000000    -3.048000000
O     1.271000000    -0.310000000    -4.594000000
H     0.401000000    -0.698000000    -4.682000000
H     1.599000000    -0.645000000    -3.759000000
O    -1.294000000    -2.378000000    -1.677000000
H    -0.602000000    -2.888000000    -1.254000000
H    -1.054000000    -1.466000000    -1.512000000
O     4.918000000    -2.344000000    -2.014000000
H     4.112000000    -2.579000000    -2.474000000
H     5.617000000    -2.720000000    -2.550000000
O    -3.912000000     4.336000000     0.495000000
H    -3.096000000     4.755000000     0.222000000
H    -3.654000000     3.449000000     0.744000000
O    -1.565000000    -5.567000000     3.748000000
H    -1.598000000    -6.083000000     2.943000000
H    -1.396000000    -4.672000000     3.453000000
O     3.543000000    -1.098000000     6.389000000
H     4.144000000    -1.806000000     6.622000000
H     2.907000000    -1.507000000     5.802000000
O    -4.561000000    -0.548000000     1.502000000
H    -4.180000000     0.254000000     1.145000000
H    -5.486000000    -0.502000000     1.261000000
O    -0.901000000     3.112000000    -5.413000000
H    -0.028000000     2.819000000    -5.151000000
H    -1.223000000     3.608000000    -4.660000000
O    -4.118000000    -1.932000000    -0.798000000
H    -3.194000000    -2.110000000    -0.971000000
H    -4.137000000    -1.620000000     0.107000000
O     1.911000000    -2.848000000    -3.382000000
H     1.780000000    -3.559000000    -2.755000000
H     1.968000000    -3.285000000    -4.232000000
O    -5.988000000     6.206000000     0.538000000
H    -5.395000000     5.666000000     0.014000000
H    -6.288000000     5.623000000     1.236000000
O    -0.332000000     0.337000000     7.016000000
H    -0.408000000     0.362000000     6.063000000
H     0.372000000     0.953000000     7.217000000
O     0.034000000    -3.776000000     0.785000000
H     0.666000000    -4.052000000     0.121000000
H     0.572000000    -3.463000000     1.512000000
O    -7.199000000     0.439000000     1.326000000
H    -7.989000000    -0.043000000     1.572000000
H    -7.332000000     0.664000000     0.405000000
O    -5.451000000    -0.353000000    -2.698000000
H    -5.962000000     0.173000000    -2.083000000
H    -4.936000000    -0.939000000    -2.142000000
O    -2.719000000     4.947000000     3.749000000
H    -3.642000000     5.200000000     3.734000000
H    -2.471000000     4.892000000     2.826000000
O    -3.560000000     4.170000000    -4.777000000
H    -3.777000000     3.240000000    -4.838000000
H    -3.240000000     4.283000000    -3.882000000
O     2.810000000     2.947000000    -0.801000000
H     2.839000000     3.614000000    -0.114000000
H     3.529000000     2.352000000    -0.588000000
O    -6.663000000     3.677000000     2.168000000
H    -5.779000000     3.768000000     2.524000000
H    -6.586000000     2.983000000     1.513000000
O     5.893000000     2.325000000     0.107000000
H     5.511000000     2.311000000     0.985000000
H     5.774000000     1.434000000    -0.219000000
O    -3.963000000    -1.402000000     4.367000000
H    -3.565000000    -2.241000000     4.136000000
H    -4.493000000    -1.171000000     3.605000000
O     2.395000000     1.464000000     3.102000000
H     1.932000000     2.026000000     2.482000000
H     2.149000000     0.574000000     2.848000000
O     1.693000000     2.785000000     5.497000000
H     1.877000000     2.284000000     4.703000000
H     2.140000000     2.305000000     6.193000000
O    -2.241000000     4.492000000    -2.406000000
H    -1.480000000     4.620000000    -1.840000000
H    -2.641000000     3.682000000    -2.091000000
O     5.228000000     2.197000000     2.826000000
H     4.696000000     1.540000000     3.276000000
H     4.732000000     3.010000000     2.918000000
O    -1.492000000     0.286000000    -5.717000000
H    -1.530000000    -0.451000000    -5.107000000
H    -1.772000000     1.040000000    -5.198000000
O    -1.867000000     0.219000000     4.811000000
H    -2.519000000    -0.474000000     4.703000000
H    -2.209000000     0.952000000     4.300000000
O    -0.002000000    -1.953000000     4.523000000
H     0.352000000    -2.243000000     5.364000000
H    -0.427000000    -1.118000000     4.717000000
O     1.648000000    -4.876000000    -1.397000000
H     2.384000000    -5.482000000    -1.318000000
H     0.873000000    -5.421000000    -1.255000000
