158
-3017.68897
C     0.515000000     0.925000000     1.092000000
H     0.998000000     1.547000000     1.840000000
C     0.735000000    -0.445000000     1.035000000
H     1.167000000    -0.979000000     1.878000000
C     0.125000000    -1.189000000     0.004000000
H     0.322000000    -2.244000000     0.032000000
C    -0.429000000    -0.530000000    -1.043000000
H    -0.791000000    -1.177000000    -1.838000000
C    -0.634000000     0.807000000    -1.020000000
H    -1.046000000     1.310000000    -1.890000000
C    -0.182000000     1.573000000     0.052000000
C    -0.589000000     2.973000000     0.111000000
O    -0.299000000     3.541000000     1.133000000
O    -1.086000000     3.499000000    -0.856000000
O    -3.223000000     1.224000000     4.203000000
H    -3.174000000     2.178000000     4.275000000
H    -2.738000000     1.020000000     3.403000000
O    -4.140000000     1.550000000    -6.322000000
H    -3.393000000     1.224000000    -5.819000000
H    -4.017000000     2.499000000    -6.345000000
O    -1.210000000     5.762000000     4.918000000
H    -2.155000000     5.765000000     4.766000000
H    -0.872000000     5.100000000     4.314000000
O     5.580000000     0.984000000     1.470000000
H     6.254000000     0.496000000     1.943000000
H     5.581000000     0.603000000     0.592000000
O     2.960000000    -0.163000000    -0.791000000
H     3.239000000     0.588000000    -0.267000000
H     2.004000000    -0.143000000    -0.749000000
O     0.348000000    -5.823000000     3.014000000
H    -0.495000000    -6.270000000     2.941000000
H     0.973000000    -6.521000000     3.214000000
O     0.885000000     6.605000000     3.133000000
H     0.016000000     6.804000000     3.483000000
H     0.739000000     6.467000000     2.197000000
O     1.643000000     0.185000000     4.802000000
H     2.425000000    -0.332000000     4.997000000
H     1.958000000     0.895000000     4.243000000
O    -5.645000000     1.898000000    -3.957000000
H    -5.241000000     1.555000000    -4.754000000
H    -4.908000000     2.197000000    -3.424000000
O    -2.994000000     3.350000000    -2.453000000
H    -2.852000000     4.069000000    -3.069000000
H    -2.314000000     3.466000000    -1.789000000
O     2.142000000    -4.725000000    -1.479000000
H     1.332000000    -4.819000000    -0.978000000
H     2.807000000    -4.513000000    -0.824000000
O    -5.019000000    -1.881000000    -0.362000000
H    -4.873000000    -2.783000000    -0.647000000
H    -4.481000000    -1.353000000    -0.952000000
O     1.250000000    -0.515000000    -3.246000000
H     1.560000000     0.386000000    -3.154000000
H     1.322000000    -0.884000000    -2.366000000
O     0.249000000    -4.977000000    -3.891000000
H     0.761000000    -5.406000000    -3.205000000
H     0.521000000    -5.410000000    -4.700000000
O     2.238000000     2.048000000    -3.003000000
H     1.438000000     2.554000000    -3.147000000
H     2.722000000     2.128000000    -3.825000000
O    -2.621000000     5.592000000     0.090000000
H    -3.389000000     5.024000000     0.147000000
H    -1.925000000     5.023000000    -0.239000000
O     2.736000000    -7.631000000     2.510000000
H     3.559000000    -8.017000000     2.809000000
H     2.993000000    -6.801000000     2.109000000
O     3.893000000    -3.461000000    -3.035000000
H     4.222000000    -4.019000000    -3.740000000
H     3.148000000    -3.942000000    -2.676000000
O    -2.068000000    -3.035000000    -3.290000000
H    -1.307000000    -3.605000000    -3.400000000
H    -2.039000000    -2.449000000    -4.046000000
O    -1.451000000    -1.806000000     2.828000000
H    -0.625000000    -1.795000000     2.344000000
H    -2.105000000    -1.518000000     2.192000000
O     4.946000000    -0.715000000    -3.476000000
H     4.150000000    -1.131000000    -3.805000000
H     5.246000000    -1.292000000    -2.774000000
O    -2.242000000     3.651000000     2.937000000
H    -1.488000000     3.585000000     2.352000000
H    -2.976000000     3.859000000     2.359000000
O    -4.556000000     4.054000000     1.374000000
H    -5.148000000     3.572000000     0.797000000
H    -5.131000000     4.446000000     2.032000000
O    -3.288000000    -5.124000000     1.660000000
H    -3.615000000    -4.319000000     2.064000000
H    -3.058000000    -4.868000000     0.767000000
O     3.273000000     5.482000000     3.305000000
H     2.563000000     6.097000000     3.486000000
H     2.921000000     4.902000000     2.629000000
O    -2.241000000     8.149000000     1.094000000
H    -2.552000000     7.247000000     1.165000000
H    -1.980000000     8.241000000     0.177000000
O     3.571000000     2.500000000    -0.675000000
H     4.169000000     3.235000000    -0.813000000
H     3.014000000     2.494000000    -1.453000000
O    -2.304000000    -3.990000000    -0.622000000
H    -1.384000000    -3.977000000    -0.359000000
H    -2.324000000    -3.505000000    -1.447000000
O     2.334000000     3.813000000     1.595000000
H     1.393000000     3.866000000     1.427000000
H     2.661000000     3.200000000     0.936000000
O     2.967000000    -2.823000000     3.819000000
H     2.795000000    -3.150000000     4.702000000
H     3.413000000    -1.988000000     3.956000000
O     0.077000000    -5.307000000     0.142000000
H    -0.540000000    -5.825000000    -0.375000000
H    -0.087000000    -5.573000000     1.047000000
O    -1.319000000    -6.593000000    -1.681000000
H    -2.247000000    -6.630000000    -1.450000000
H    -1.138000000    -7.444000000    -2.082000000
O    -0.474000000    -1.756000000    -5.103000000
H     0.096000000    -2.155000000    -5.760000000
H     0.124000000    -1.440000000    -4.426000000
O    -4.380000000     7.454000000    -1.932000000
H    -3.636000000     6.922000000    -1.651000000
H    -4.679000000     7.888000000    -1.134000000
O    -0.264000000     2.966000000    -4.073000000
H    -0.439000000     3.347000000    -4.933000000
H    -0.980000000     3.282000000    -3.521000000
O    -2.427000000     5.333000000    -4.260000000
H    -2.921000000     5.669000000    -5.009000000
H    -1.921000000     6.084000000    -3.951000000
O     4.334000000    -0.378000000     4.763000000
H     4.970000000    -0.934000000     5.213000000
H     4.864000000     0.301000000     4.345000000
O    -2.437000000    -6.128000000    -3.981000000
H    -2.905000000    -5.295000000    -4.042000000
H    -1.850000000    -6.019000000    -3.233000000
O     0.439000000     5.762000000    -0.547000000
H    -0.251000000     6.405000000    -0.710000000
H    -0.027000000     4.981000000    -0.247000000
O     2.687000000     5.754000000    -2.504000000
H     3.013000000     6.519000000    -2.030000000
H     1.781000000     5.659000000    -2.212000000
O    -3.618000000    -0.180000000    -2.352000000
H    -2.824000000     0.334000000    -2.499000000
H    -3.817000000    -0.564000000    -3.206000000
O     3.767000000     2.274000000     3.358000000
H     3.030000000     2.697000000     2.919000000
H     4.290000000     1.904000000     2.647000000
O    -1.831000000     0.538000000    -5.228000000
H    -1.041000000     1.066000000    -5.108000000
H    -1.521000000    -0.367000000    -5.188000000
O    -4.925000000     1.749000000    -0.779000000
H    -4.906000000     1.053000000    -1.436000000
H    -4.213000000     2.336000000    -1.031000000
O    -2.744000000    -0.746000000     0.951000000
H    -2.138000000    -0.207000000     0.442000000
H    -3.017000000    -1.436000000     0.347000000
O    -0.665000000    -3.894000000     4.563000000
H    -0.300000000    -4.378000000     3.823000000
H    -0.849000000    -3.023000000     4.212000000
O     5.944000000    -2.426000000    -1.615000000
H     5.136000000    -2.871000000    -1.873000000
H     6.057000000    -2.651000000    -0.692000000
O     3.647000000    -5.147000000     2.038000000
H     3.065000000    -4.520000000     2.466000000
H     4.472000000    -4.673000000     1.930000000
