158
-3060.29420
C    -1.037000000     0.441000000     0.888000000
H    -1.743000000     0.759000000     1.651000000
C     0.245000000     0.118000000     1.246000000
H     0.509000000     0.231000000     2.295000000
C     1.137000000    -0.329000000     0.293000000
H     2.127000000    -0.630000000     0.572000000
C     0.776000000    -0.473000000    -1.026000000
H     1.488000000    -0.886000000    -1.736000000
C    -0.471000000    -0.050000000    -1.408000000
H    -0.860000000    -0.165000000    -2.417000000
C    -1.392000000     0.378000000    -0.481000000
C    -2.810000000     0.782000000    -0.829000000
O    -3.625000000     1.160000000     0.031000000
O    -3.084000000     0.978000000    -2.005000000
O     1.936000000     3.574000000     2.539000000
H     1.324000000     3.103000000     3.106000000
H     1.707000000     4.496000000     2.653000000
O    -4.295000000     4.517000000    -3.767000000
H    -4.501000000     4.790000000    -4.661000000
H    -3.820000000     5.259000000    -3.393000000
O     5.311000000    -0.824000000     0.843000000
H     5.162000000    -0.516000000     1.737000000
H     4.872000000    -1.673000000     0.806000000
O    -4.147000000     1.193000000     2.480000000
H    -3.898000000     1.189000000     1.556000000
H    -5.101000000     1.109000000     2.471000000
O    -1.197000000     4.308000000     2.761000000
H    -0.862000000     3.824000000     3.516000000
H    -0.740000000     5.149000000     2.794000000
O    -7.951000000     1.246000000    -1.798000000
H    -8.518000000     1.524000000    -2.517000000
H    -7.064000000     1.430000000    -2.107000000
O     6.366000000    -4.595000000     1.258000000
H     7.309000000    -4.511000000     1.116000000
H     5.973000000    -4.013000000     0.607000000
O     3.692000000    -2.928000000     1.457000000
H     3.710000000    -3.281000000     0.568000000
H     2.936000000    -3.348000000     1.867000000
O    -2.401000000    -3.156000000     3.692000000
H    -1.773000000    -2.484000000     3.959000000
H    -2.641000000    -2.918000000     2.797000000
O     3.905000000     0.227000000    -2.646000000
H     3.917000000     1.183000000    -2.685000000
H     4.823000000    -0.020000000    -2.533000000
O     2.945000000    -1.803000000    -3.764000000
H     2.463000000    -1.478000000    -4.524000000
H     3.180000000    -1.015000000    -3.274000000
O    -3.223000000    -0.522000000    -4.020000000
H    -4.167000000    -0.537000000    -4.179000000
H    -3.112000000     0.092000000    -3.294000000
O     1.356000000    -3.909000000     2.363000000
H     0.606000000    -4.098000000     1.799000000
H     0.975000000    -3.499000000     3.139000000
O     3.886000000     2.822000000    -2.521000000
H     4.561000000     3.236000000    -1.984000000
H     3.060000000     3.124000000    -2.143000000
O    -3.079000000    -4.057000000    -4.970000000
H    -2.163000000    -4.188000000    -5.214000000
H    -3.041000000    -3.674000000    -4.094000000
O     1.335000000     2.934000000    -0.673000000
H     1.255000000     2.008000000    -0.443000000
H     1.384000000     3.387000000     0.169000000
O    -5.519000000     1.553000000    -2.769000000
H    -4.676000000     1.398000000    -2.344000000
H    -5.310000000     2.102000000    -3.524000000
O     1.311000000     0.275000000    -5.023000000
H     0.562000000    -0.218000000    -5.358000000
H     0.926000000     0.922000000    -4.431000000
O    -2.856000000    -1.869000000     1.057000000
H    -2.082000000    -1.335000000     0.879000000
H    -2.600000000    -2.754000000     0.798000000
O    -2.547000000    -2.597000000    -2.406000000
H    -1.648000000    -2.925000000    -2.425000000
H    -2.525000000    -1.806000000    -2.945000000
O     5.669000000    -2.064000000    -3.060000000
H     5.994000000    -2.787000000    -3.597000000
H     4.718000000    -2.101000000    -3.160000000
O    -3.070000000     3.675000000     0.303000000
H    -2.531000000     3.816000000     1.081000000
H    -3.117000000     2.723000000     0.213000000
O    -6.253000000     0.303000000     0.269000000
H    -5.483000000     0.385000000    -0.294000000
H    -6.996000000     0.377000000    -0.330000000
O     5.395000000     0.198000000     3.440000000
H     5.086000000     1.022000000     3.816000000
H     5.356000000    -0.426000000     4.165000000
O    -0.165000000     2.501000000     4.473000000
H    -0.703000000     1.756000000     4.202000000
H    -0.179000000     2.471000000     5.430000000
O     0.711000000     2.813000000    -3.743000000
H     1.062000000     2.811000000    -2.852000000
H    -0.236000000     2.880000000    -3.627000000
O    -5.148000000    -2.294000000    -1.347000000
H    -4.192000000    -2.283000000    -1.305000000
H    -5.357000000    -1.854000000    -2.171000000
O     3.092000000    -3.690000000    -1.213000000
H     3.098000000    -4.575000000    -1.579000000
H     2.999000000    -3.117000000    -1.973000000
O    -0.381000000    -0.119000000     6.198000000
H    -0.743000000    -0.303000000     5.332000000
H     0.176000000    -0.873000000     6.392000000
O    -0.409000000    -3.262000000     0.249000000
H    -0.523000000    -3.822000000    -0.519000000
H     0.218000000    -2.595000000    -0.033000000
O    -5.951000000    -1.100000000    -3.872000000
H    -6.534000000    -1.848000000    -4.002000000
H    -6.414000000    -0.363000000    -4.270000000
O     1.819000000    -4.196000000    -4.472000000
H     2.104000000    -4.985000000    -4.011000000
H     2.543000000    -3.579000000    -4.361000000
O    -3.837000000     3.624000000     4.136000000
H    -3.347000000     3.915000000     3.367000000
H    -4.097000000     2.726000000     3.929000000
O    -2.381000000     2.647000000    -5.991000000
H    -3.320000000     2.724000000    -6.160000000
H    -2.312000000     2.593000000    -5.038000000
O     4.451000000     4.141000000     0.484000000
H     3.759000000     3.987000000     1.127000000
H     4.748000000     3.266000000     0.237000000
O    -7.262000000     1.868000000     2.827000000
H    -7.238000000     2.784000000     2.550000000
H    -7.199000000     1.370000000     2.013000000
O     5.482000000     1.705000000     0.063000000
H     6.235000000     1.710000000    -0.528000000
H     5.372000000     0.784000000     0.303000000
O    -5.317000000     4.597000000    -1.056000000
H    -4.981000000     4.339000000    -1.914000000
H    -4.585000000     4.448000000    -0.457000000
O    -5.610000000    -1.516000000     2.166000000
H    -4.919000000    -2.043000000     1.765000000
H    -5.631000000    -0.712000000     1.646000000
O     2.746000000    -1.262000000     3.512000000
H     3.268000000    -0.464000000     3.433000000
H     3.126000000    -1.861000000     2.869000000
O     7.345000000    -0.935000000    -1.439000000
H     6.814000000    -1.382000000    -2.098000000
H     6.791000000    -0.915000000    -0.659000000
O     3.959000000     1.416000000     5.489000000
H     4.387000000     1.163000000     6.307000000
H     3.191000000     0.847000000     5.434000000
O    -1.940000000     3.036000000    -3.286000000
H    -2.665000000     3.643000000    -3.138000000
H    -2.085000000     2.331000000    -2.654000000
O    -0.853000000    -1.625000000    -5.748000000
H    -0.723000000    -2.509000000    -5.407000000
H    -1.687000000    -1.343000000    -5.372000000
O    -2.948000000    -0.211000000     4.562000000
H    -3.418000000    -1.019000000     4.769000000
H    -3.414000000     0.151000000     3.808000000
O    -1.694000000     6.097000000    -0.510000000
H    -2.034000000     5.222000000    -0.322000000
H    -2.359000000     6.692000000    -0.164000000
O     0.169000000    -2.156000000     4.064000000
H     0.489000000    -2.306000000     4.954000000
H     0.935000000    -1.844000000     3.583000000
O    -0.170000000    -3.879000000    -2.619000000
H    -0.496000000    -4.701000000    -2.984000000
H     0.572000000    -3.646000000    -3.176000000
