158
-3011.95940
C    -1.495000000    -0.225000000     0.154000000
H    -2.580000000    -0.276000000     0.162000000
C    -0.833000000     0.916000000     0.633000000
H    -1.369000000     1.716000000     1.138000000
C     0.545000000     1.012000000     0.418000000
H     1.126000000     1.875000000     0.814000000
C     1.261000000    -0.046000000    -0.067000000
H     2.337000000     0.061000000    -0.176000000
C     0.656000000    -1.149000000    -0.618000000
H     1.326000000    -1.833000000    -1.133000000
C    -0.759000000    -1.308000000    -0.496000000
C    -1.387000000    -2.598000000    -1.025000000
O    -2.587000000    -2.873000000    -0.907000000
O    -0.741000000    -3.429000000    -1.580000000
O    -3.143000000     5.034000000     1.263000000
H    -2.824000000     4.486000000     1.980000000
H    -2.653000000     5.852000000     1.351000000
O     1.474000000     5.038000000     0.961000000
H     0.606000000     5.414000000     1.112000000
H     1.321000000     4.322000000     0.345000000
O    -1.455000000     6.826000000     2.490000000
H    -1.270000000     5.981000000     2.901000000
H    -2.139000000     7.213000000     3.036000000
O    -2.727000000    -4.452000000    -5.357000000
H    -1.877000000    -4.819000000    -5.598000000
H    -3.059000000    -4.064000000    -6.166000000
O     4.372000000    -3.077000000     1.019000000
H     3.504000000    -2.736000000     1.236000000
H     4.948000000    -2.712000000     1.691000000
O     3.492000000     5.098000000     2.855000000
H     2.924000000     5.159000000     2.087000000
H     3.268000000     4.257000000     3.253000000
O     5.496000000     3.025000000    -2.678000000
H     5.518000000     2.085000000    -2.856000000
H     6.220000000     3.172000000    -2.070000000
O    -3.899000000     1.551000000     3.500000000
H    -2.947000000     1.451000000     3.482000000
H    -4.230000000     0.665000000     3.646000000
O     4.482000000     2.176000000     1.231000000
H     4.084000000     2.327000000     0.374000000
H     4.109000000     1.344000000     1.525000000
O     0.455000000     5.983000000    -2.159000000
H     0.547000000     5.734000000    -3.078000000
H    -0.014000000     5.251000000    -1.758000000
O    -2.370000000    -8.383000000    -1.782000000
H    -1.938000000    -7.663000000    -2.240000000
H    -1.846000000    -8.513000000    -0.991000000
O    -5.032000000    -7.356000000    -1.076000000
H    -4.847000000    -6.736000000    -1.780000000
H    -4.213000000    -7.836000000    -0.956000000
O    -5.893000000    -2.325000000     0.195000000
H    -5.042000000    -2.067000000     0.548000000
H    -5.780000000    -3.243000000    -0.054000000
O     5.009000000     4.786000000     0.057000000
H     4.334000000     5.451000000     0.196000000
H     4.628000000     3.981000000     0.407000000
O    -4.758000000     5.276000000    -0.815000000
H    -4.208000000     5.014000000    -0.077000000
H    -5.588000000     5.536000000    -0.415000000
O     0.561000000    -0.468000000     3.474000000
H     0.044000000    -0.864000000     4.175000000
H    -0.062000000     0.083000000     2.999000000
O     3.483000000     0.113000000     2.564000000
H     4.112000000    -0.572000000     2.790000000
H     2.630000000    -0.264000000     2.777000000
O     2.438000000     6.448000000     4.980000000
H     2.645000000     5.845000000     4.266000000
H     2.642000000     5.955000000     5.775000000
O     3.243000000    -3.642000000    -1.273000000
H     3.649000000    -3.363000000    -0.452000000
H     3.914000000    -3.482000000    -1.937000000
O     1.030000000    -7.531000000    -2.407000000
H     1.873000000    -7.759000000    -2.799000000
H     0.742000000    -6.756000000    -2.891000000
O    -0.179000000     3.631000000    -0.989000000
H     0.510000000     3.174000000    -1.470000000
H    -0.878000000     2.984000000    -0.898000000
O     1.104000000    -4.744000000     0.139000000
H     1.856000000    -4.403000000    -0.346000000
H     0.342000000    -4.407000000    -0.333000000
O    -5.944000000     2.783000000     1.579000000
H    -5.721000000     3.484000000     2.193000000
H    -5.270000000     2.118000000     1.720000000
O    -1.763000000     4.372000000     3.629000000
H    -1.990000000     4.443000000     4.556000000
H    -1.734000000     3.430000000     3.462000000
O    -1.407000000    -5.740000000    -2.547000000
H    -1.051000000    -4.984000000    -2.079000000
H    -2.075000000    -5.371000000    -3.125000000
O    -6.733000000    -0.924000000     2.653000000
H    -6.426000000    -1.429000000     1.901000000
H    -7.403000000    -0.342000000     2.294000000
O     1.345000000     0.225000000    -4.869000000
H     1.501000000    -0.570000000    -4.359000000
H     0.431000000     0.157000000    -5.144000000
O     2.942000000     7.262000000     0.281000000
H     2.174000000     6.796000000     0.611000000
H     3.009000000     6.994000000    -0.636000000
O     3.117000000     2.810000000    -1.136000000
H     2.526000000     2.388000000    -1.760000000
H     3.886000000     3.045000000    -1.655000000
O    -5.963000000    -0.944000000    -2.427000000
H    -5.163000000    -1.290000000    -2.821000000
H    -5.799000000    -0.978000000    -1.484000000
O    -4.787000000    -5.531000000    -3.382000000
H    -4.308000000    -4.726000000    -3.579000000
H    -5.682000000    -5.241000000    -3.205000000
O     2.099000000     2.476000000     4.422000000
H     1.966000000     1.991000000     3.607000000
H     1.705000000     1.923000000     5.096000000
O     5.610000000     0.209000000    -2.615000000
H     5.278000000    -0.402000000    -1.957000000
H     6.558000000     0.205000000    -2.489000000
O    -3.091000000    -1.034000000     4.115000000
H    -2.505000000    -1.316000000     4.817000000
H    -3.044000000    -1.736000000     3.466000000
O    -3.041000000    -6.669000000     2.168000000
H    -3.234000000    -6.435000000     3.076000000
H    -3.813000000    -6.386000000     1.678000000
O     7.292000000     3.325000000    -0.167000000
H     7.229000000     2.921000000     0.699000000
H     6.544000000     3.920000000    -0.209000000
O     1.332000000     2.414000000    -3.235000000
H     1.258000000     1.725000000    -3.896000000
H     0.740000000     3.101000000    -3.539000000
O     4.652000000    -2.664000000    -3.337000000
H     4.538000000    -2.150000000    -4.136000000
H     5.600000000    -2.701000000    -3.209000000
O     1.250000000    -4.386000000    -3.089000000
H     1.832000000    -4.287000000    -2.335000000
H     0.442000000    -3.944000000    -2.828000000
O    -5.244000000    -5.404000000     1.045000000
H    -6.121000000    -5.311000000     1.416000000
H    -5.369000000    -5.948000000     0.268000000
O     5.693000000     2.427000000     3.596000000
H     5.359000000     2.250000000     2.716000000
H     5.099000000     3.091000000     3.948000000
O    -3.699000000    -2.615000000    -3.553000000
H    -3.123000000    -2.619000000    -2.789000000
H    -3.166000000    -2.984000000    -4.257000000
O    -0.370000000    -6.547000000     1.385000000
H    -1.257000000    -6.250000000     1.185000000
H     0.197000000    -5.851000000     1.051000000
O     1.950000000    -2.770000000     2.735000000
H     1.437000000    -2.049000000     3.098000000
H     1.330000000    -3.497000000     2.670000000
O    -4.107000000     0.072000000    -4.549000000
H    -4.119000000    -0.884000000    -4.493000000
H    -4.137000000     0.365000000    -3.638000000
O     1.715000000    -4.699000000    -5.783000000
H     1.499000000    -4.536000000    -4.865000000
H     2.332000000    -5.431000000    -5.757000000
O    -3.423000000    -2.723000000     1.598000000
H    -3.767000000    -3.604000000     1.748000000
H    -3.329000000    -2.661000000     0.647000000
O    -1.184000000     1.625000000     4.477000000
H    -1.779000000     1.185000000     5.085000000
H    -0.469000000     1.941000000     5.029000000
