158
-3044.36905
C    -0.502000000     1.332000000     0.483000000
H    -0.840000000     2.265000000     0.927000000
C     0.701000000     0.749000000     0.790000000
H     1.267000000     1.174000000     1.616000000
C     1.070000000    -0.479000000     0.257000000
H     1.776000000    -1.070000000     0.825000000
C     0.289000000    -1.165000000    -0.530000000
H     0.533000000    -2.177000000    -0.844000000
C    -0.929000000    -0.576000000    -0.920000000
H    -1.551000000    -1.136000000    -1.613000000
C    -1.377000000     0.645000000    -0.364000000
C    -2.667000000     1.332000000    -0.805000000
O    -3.189000000     2.168000000    -0.102000000
O    -3.243000000     0.947000000    -1.818000000
O    -0.812000000     4.420000000    -1.653000000
H    -0.306000000     4.443000000    -0.841000000
H    -0.984000000     3.490000000    -1.801000000
O    -7.221000000     2.779000000    -0.251000000
H    -6.402000000     2.928000000    -0.723000000
H    -6.967000000     2.767000000     0.672000000
O     3.120000000     2.734000000    -0.086000000
H     2.655000000     2.727000000    -0.922000000
H     4.035000000     2.886000000    -0.322000000
O     6.082000000     3.138000000     2.492000000
H     6.341000000     2.998000000     1.581000000
H     5.468000000     2.428000000     2.678000000
O     1.512000000     6.029000000     2.852000000
H     1.886000000     5.148000000     2.865000000
H     0.604000000     5.907000000     3.131000000
O     0.581000000    -4.368000000    -2.039000000
H     0.171000000    -5.232000000    -1.996000000
H    -0.107000000    -3.793000000    -2.373000000
O    -5.638000000    -0.215000000     1.789000000
H    -5.028000000    -0.061000000     1.067000000
H    -6.002000000    -1.082000000     1.615000000
O     6.953000000    -1.605000000    -1.508000000
H     7.311000000    -1.555000000    -2.395000000
H     7.723000000    -1.657000000    -0.942000000
O    -2.818000000    -0.006000000     3.126000000
H    -3.004000000    -0.439000000     2.293000000
H    -3.666000000     0.040000000     3.567000000
O     6.983000000     0.648000000     0.094000000
H     6.686000000    -0.131000000    -0.378000000
H     6.836000000     0.439000000     1.016000000
O     4.728000000    -6.700000000     0.202000000
H     4.482000000    -7.316000000    -0.489000000
H     4.311000000    -5.877000000    -0.052000000
O    -1.919000000     2.982000000     5.819000000
H    -2.404000000     2.780000000     6.619000000
H    -2.567000000     2.901000000     5.119000000
O    -7.908000000     1.696000000    -3.573000000
H    -7.070000000     1.713000000    -3.111000000
H    -7.783000000     2.284000000    -4.318000000
O     4.687000000    -1.654000000    -0.134000000
H     3.930000000    -1.571000000    -0.713000000
H     5.428000000    -1.787000000    -0.725000000
O    -3.098000000    -4.178000000    -0.131000000
H    -3.661000000    -4.008000000     0.624000000
H    -2.697000000    -5.027000000     0.056000000
O     4.924000000    -2.371000000     2.489000000
H     4.905000000    -2.170000000     1.554000000
H     4.373000000    -3.149000000     2.578000000
O    -0.350000000     1.858000000    -3.745000000
H    -0.872000000     1.065000000    -3.867000000
H    -0.065000000     2.096000000    -4.627000000
O    -3.911000000     2.710000000    -3.825000000
H    -3.614000000     2.004000000    -3.251000000
H    -4.328000000     3.339000000    -3.236000000
O    -5.727000000     0.557000000    -2.401000000
H    -4.838000000     0.777000000    -2.124000000
H    -5.901000000    -0.293000000    -1.997000000
O     6.887000000     0.108000000     2.590000000
H     7.522000000     0.568000000     3.139000000
H     6.546000000    -0.589000000     3.151000000
O    -3.465000000     5.527000000    -1.528000000
H    -3.313000000     6.468000000    -1.438000000
H    -2.601000000     5.162000000    -1.717000000
O    -1.902000000    -2.178000000     1.587000000
H    -1.148000000    -1.603000000     1.454000000
H    -1.718000000    -2.944000000     1.042000000
O     4.206000000     0.826000000     1.977000000
H     4.930000000     0.205000000     1.897000000
H     3.861000000     0.906000000     1.088000000
O     2.816000000    -4.605000000     2.295000000
H     1.958000000    -4.601000000     2.719000000
H     3.376000000    -5.101000000     2.893000000
O     3.259000000    -4.508000000    -0.555000000
H     2.419000000    -4.289000000    -0.959000000
H     3.125000000    -4.349000000     0.379000000
O     2.089000000     0.013000000     6.306000000
H     1.688000000     0.857000000     6.100000000
H     2.019000000    -0.490000000     5.495000000
O     5.616000000     2.692000000    -0.694000000
H     5.359000000     2.421000000    -1.575000000
H     6.017000000     1.911000000    -0.311000000
O     2.085000000    -1.836000000    -4.613000000
H     2.682000000    -2.411000000    -5.092000000
H     2.208000000    -0.975000000    -5.013000000
O    -6.324000000     2.197000000     2.541000000
H    -5.812000000     1.488000000     2.151000000
H    -5.673000000     2.768000000     2.948000000
O    -3.699000000    -3.349000000    -2.857000000
H    -3.308000000    -3.662000000    -2.041000000
H    -2.968000000    -3.313000000    -3.474000000
O    -1.619000000     5.218000000     2.814000000
H    -2.332000000     5.603000000     3.323000000
H    -1.837000000     4.288000000     2.763000000
O    -5.314000000    -1.756000000    -1.056000000
H    -4.887000000    -2.060000000    -1.857000000
H    -4.997000000    -2.350000000    -0.375000000
O     3.159000000    -1.084000000    -2.282000000
H     2.871000000    -1.613000000    -3.026000000
H     2.721000000    -0.241000000    -2.404000000
O    -3.580000000     6.343000000     1.086000000
H    -3.760000000     5.505000000     0.661000000
H    -2.724000000     6.224000000     1.498000000
O     2.820000000     3.870000000     2.371000000
H     2.732000000     3.435000000     1.522000000
H     3.595000000     3.470000000     2.766000000
O     4.956000000     1.697000000    -2.973000000
H     5.428000000     1.728000000    -3.805000000
H     4.601000000     0.809000000    -2.931000000
O    -4.969000000     3.531000000    -1.249000000
H    -4.415000000     2.886000000    -0.809000000
H    -4.502000000     4.360000000    -1.146000000
O    -2.864000000     2.841000000     2.409000000
H    -3.013000000     2.719000000     1.472000000
H    -2.632000000     1.970000000     2.730000000
O     7.414000000    -3.454000000     2.191000000
H     7.740000000    -2.997000000     2.965000000
H     6.464000000    -3.477000000     2.308000000
O     1.595000000     1.018000000    -2.183000000
H     1.124000000     0.727000000    -1.402000000
H     0.923000000     1.429000000    -2.728000000
O     2.688000000    -0.874000000     3.636000000
H     3.398000000    -1.485000000     3.436000000
H     2.998000000    -0.031000000     3.307000000
O    -5.727000000    -0.992000000    -4.743000000
H    -5.699000000    -0.497000000    -5.562000000
H    -6.129000000    -0.392000000    -4.114000000
O    -2.286000000    -0.083000000    -4.455000000
H    -2.854000000     0.464000000    -4.998000000
H    -2.866000000    -0.431000000    -3.777000000
O     0.679000000    -3.715000000     4.286000000
H     0.803000000    -3.007000000     3.653000000
H     0.248000000    -3.297000000     5.031000000
O    -3.785000000     1.597000000    -6.120000000
H    -3.873000000     2.281000000    -5.456000000
H    -4.685000000     1.379000000    -6.360000000
O     3.930000000    -5.203000000    -3.380000000
H     4.807000000    -5.279000000    -3.005000000
H     3.360000000    -5.050000000    -2.627000000
O    -0.564000000    -2.404000000    -3.686000000
H     0.329000000    -2.402000000    -4.031000000
H    -0.968000000    -1.623000000    -4.063000000
O    -0.461000000    -0.596000000     4.229000000
H    -1.300000000    -0.149000000     4.119000000
H     0.059000000    -0.319000000     3.475000000
