158
-3037.71899
C    -0.350000000     1.439000000     0.124000000
H    -0.471000000     2.514000000     0.232000000
C     0.630000000     0.754000000     0.881000000
H     1.280000000     1.301000000     1.558000000
C     0.896000000    -0.576000000     0.604000000
H     1.819000000    -0.937000000     1.125000000
C     0.211000000    -1.289000000    -0.363000000
H     0.492000000    -2.317000000    -0.572000000
C    -0.866000000    -0.640000000    -1.009000000
H    -1.444000000    -1.146000000    -1.778000000
C    -1.101000000     0.721000000    -0.804000000
C    -2.420000000     1.266000000    -1.443000000
O    -2.905000000     2.315000000    -1.005000000
O    -3.069000000     0.657000000    -2.214000000
O    -2.107000000     4.699000000    -1.313000000
H    -2.400000000     3.800000000    -1.163000000
H    -1.560000000     4.644000000    -2.097000000
O     3.106000000     2.744000000    -0.473000000
H     3.554000000     2.770000000     0.372000000
H     2.196000000     2.961000000    -0.269000000
O     4.980000000     5.083000000     2.741000000
H     4.287000000     5.668000000     3.046000000
H     4.589000000     4.210000000     2.777000000
O     3.044000000    -4.862000000    -4.751000000
H     3.563000000    -5.616000000    -4.473000000
H     2.819000000    -4.413000000    -3.936000000
O     1.731000000     5.032000000    -1.917000000
H     2.462000000     5.463000000    -1.475000000
H     0.954000000     5.344000000    -1.453000000
O    -0.859000000     5.087000000     2.237000000
H    -0.762000000     4.146000000     2.383000000
H    -1.743000000     5.287000000     2.546000000
O     0.003000000    -5.247000000    -0.800000000
H    -0.604000000    -5.942000000    -1.055000000
H    -0.159000000    -4.545000000    -1.430000000
O     4.940000000    -2.718000000    -1.104000000
H     5.546000000    -2.626000000    -1.839000000
H     5.221000000    -3.519000000    -0.660000000
O    -3.209000000     0.150000000     2.459000000
H    -2.697000000    -0.657000000     2.421000000
H    -3.977000000    -0.079000000     2.983000000
O     1.586000000     6.461000000     2.860000000
H     0.911000000     5.920000000     2.451000000
H     1.288000000     7.361000000     2.722000000
O    -1.792000000     2.605000000     2.971000000
H    -1.542000000     1.875000000     2.405000000
H    -2.464000000     2.242000000     3.548000000
O     4.862000000     0.012000000     0.199000000
H     4.953000000    -0.894000000    -0.096000000
H     4.203000000     0.389000000    -0.384000000
O    -1.137000000     4.260000000    -4.139000000
H    -1.116000000     5.148000000    -4.494000000
H    -2.066000000     4.082000000    -3.993000000
O    -1.399000000    -4.232000000     3.102000000
H    -1.842000000    -3.620000000     3.690000000
H    -2.081000000    -4.853000000     2.845000000
O    -5.058000000     5.856000000    -4.327000000
H    -4.530000000     5.213000000    -3.853000000
H    -5.638000000     5.330000000    -4.878000000
O     3.897000000    -2.883000000     1.506000000
H     3.882000000    -2.502000000     0.628000000
H     3.114000000    -3.433000000     1.542000000
O    -1.376000000    -0.551000000    -4.631000000
H    -1.637000000    -0.200000000    -3.779000000
H    -1.248000000    -1.487000000    -4.475000000
O    -4.967000000     1.640000000    -5.773000000
H    -5.513000000     2.426000000    -5.793000000
H    -5.274000000     1.155000000    -5.007000000
O    -3.565000000     3.168000000    -3.533000000
H    -4.210000000     2.621000000    -3.981000000
H    -3.200000000     2.600000000    -2.854000000
O    -4.691000000    -0.766000000    -0.616000000
H    -3.989000000    -0.365000000    -1.129000000
H    -4.898000000    -0.116000000     0.055000000
O     4.444000000     2.848000000    -3.028000000
H     3.978000000     3.458000000    -3.600000000
H     3.888000000     2.774000000    -2.253000000
O    -3.853000000     6.579000000    -0.005000000
H    -4.230000000     7.057000000    -0.744000000
H    -3.479000000     5.790000000    -0.397000000
O    -1.068000000    -1.473000000     2.706000000
H    -0.431000000    -1.112000000     2.090000000
H    -0.982000000    -2.422000000     2.612000000
O     5.261000000     0.670000000     2.658000000
H     6.149000000     0.729000000     3.009000000
H     5.377000000     0.349000000     1.764000000
O     3.379000000    -6.405000000     2.268000000
H     2.817000000    -5.631000000     2.286000000
H     4.144000000    -6.157000000     2.786000000
O     2.295000000    -6.792000000    -0.314000000
H     1.459000000    -6.331000000    -0.255000000
H     2.704000000    -6.658000000     0.541000000
O     1.011000000    -0.214000000     5.189000000
H     1.081000000     0.666000000     4.819000000
H     1.705000000    -0.711000000     4.755000000
O     0.076000000     6.419000000    -0.071000000
H    -0.699000000     6.680000000    -0.569000000
H    -0.265000000     5.862000000     0.628000000
O    -0.269000000    -3.494000000    -3.799000000
H     0.611000000    -3.354000000    -3.450000000
H    -0.214000000    -3.205000000    -4.710000000
O    -6.779000000     2.222000000     2.802000000
H    -5.950000000     2.299000000     2.331000000
H    -6.525000000     2.038000000     3.707000000
O    -3.221000000    -6.480000000    -0.434000000
H    -2.961000000    -5.733000000    -0.973000000
H    -3.630000000    -7.089000000    -1.049000000
O     2.250000000    -2.839000000    -2.787000000
H     2.809000000    -2.219000000    -3.256000000
H     2.807000000    -3.182000000    -2.088000000
O    -6.317000000    -2.900000000    -1.408000000
H    -6.588000000    -2.136000000    -1.918000000
H    -5.520000000    -2.617000000    -0.959000000
O     3.483000000     2.685000000     2.429000000
H     3.946000000     1.848000000     2.397000000
H     2.720000000     2.515000000     2.982000000
O    -5.443000000     3.971000000    -0.637000000
H    -4.680000000     3.628000000    -1.102000000
H    -5.541000000     3.396000000     0.121000000
O    -4.668000000     1.797000000     1.035000000
H    -4.110000000     2.032000000     0.294000000
H    -4.124000000     1.219000000     1.571000000
O     6.971000000    -1.784000000     2.030000000
H     7.610000000    -2.430000000     2.333000000
H     6.123000000    -2.154000000     2.273000000
O    -1.072000000    -0.047000000    -7.284000000
H    -0.126000000     0.072000000    -7.194000000
H    -1.363000000    -0.318000000    -6.414000000
O     2.502000000     0.320000000    -2.026000000
H     1.895000000     0.105000000    -1.317000000
H     2.062000000     1.016000000    -2.514000000
O     0.457000000     1.858000000    -3.835000000
H    -0.067000000     2.637000000    -4.021000000
H     0.059000000     1.169000000    -4.367000000
O     3.129000000    -1.080000000     3.374000000
H     3.545000000    -1.717000000     2.794000000
H     3.852000000    -0.545000000     3.702000000
O    -3.592000000    -2.214000000    -3.536000000
H    -3.694000000    -1.755000000    -4.370000000
H    -3.876000000    -1.580000000    -2.877000000
O     4.053000000     1.727000000     5.281000000
H     4.002000000     2.679000000     5.193000000
H     4.398000000     1.428000000     4.439000000
O     1.636000000    -4.282000000     2.359000000
H     1.571000000    -3.616000000     3.043000000
H     0.767000000    -4.684000000     2.334000000
O    -5.568000000     0.528000000    -3.399000000
H    -5.003000000     0.368000000    -2.643000000
H    -6.414000000     0.159000000    -3.148000000
O    -3.020000000    -4.667000000    -2.364000000
H    -2.686000000    -5.115000000    -3.141000000
H    -3.194000000    -3.773000000    -2.659000000
O    -1.707000000    -0.318000000     5.212000000
H    -1.769000000    -0.502000000     4.275000000
H    -0.800000000    -0.527000000     5.438000000
O     1.200000000     3.033000000     4.006000000
H     1.700000000     3.593000000     4.600000000
H     0.322000000     3.006000000     4.386000000
