158
-3014.63186
C    -1.451000000    -0.412000000    -0.116000000
H    -2.461000000    -0.812000000    -0.150000000
C    -0.748000000    -0.211000000     1.083000000
H    -1.298000000    -0.394000000     2.002000000
C     0.506000000     0.269000000     1.053000000
H     1.056000000     0.515000000     2.022000000
C     1.115000000     0.590000000    -0.154000000
H     2.108000000     1.028000000    -0.097000000
C     0.488000000     0.345000000    -1.347000000
H     1.095000000     0.545000000    -2.226000000
C    -0.809000000    -0.118000000    -1.305000000
C    -1.440000000    -0.616000000    -2.575000000
O    -2.639000000    -0.878000000    -2.588000000
O    -0.813000000    -0.826000000    -3.558000000
O    -0.269000000     3.306000000     0.427000000
H    -1.065000000     3.560000000    -0.041000000
H    -0.117000000     2.398000000     0.166000000
O     1.949000000     4.534000000     5.099000000
H     1.227000000     5.137000000     5.276000000
H     2.713000000     4.950000000     5.500000000
O    -0.783000000     1.864000000     6.233000000
H    -0.515000000     2.014000000     5.326000000
H    -0.407000000     1.013000000     6.456000000
O    -1.499000000    -5.837000000     0.353000000
H    -0.909000000    -6.399000000    -0.150000000
H    -0.981000000    -5.054000000     0.541000000
O     1.191000000    -3.850000000     5.804000000
H     0.854000000    -4.483000000     5.171000000
H     1.362000000    -3.063000000     5.287000000
O     4.479000000     1.247000000     2.546000000
H     4.702000000     1.629000000     1.697000000
H     3.645000000     1.654000000     2.781000000
O    -0.460000000    -3.417000000    -4.186000000
H    -0.899000000    -2.569000000    -4.124000000
H     0.414000000    -3.211000000    -4.519000000
O     5.299000000     4.004000000    -0.021000000
H     4.398000000     4.133000000     0.276000000
H     5.423000000     3.055000000    -0.005000000
O     1.294000000    -2.740000000    -7.602000000
H     0.872000000    -1.914000000    -7.367000000
H     1.293000000    -3.249000000    -6.792000000
O    -2.312000000    -3.160000000     6.059000000
H    -2.559000000    -3.747000000     5.344000000
H    -1.857000000    -2.436000000     5.628000000
O     5.476000000     1.373000000    -0.500000000
H     5.933000000     0.533000000    -0.546000000
H     5.332000000     1.618000000    -1.415000000
O     2.412000000     4.150000000    -2.275000000
H     2.684000000     4.553000000    -3.100000000
H     3.115000000     4.364000000    -1.661000000
O    -5.592000000    -1.478000000    -5.703000000
H    -4.659000000    -1.264000000    -5.682000000
H    -6.019000000    -0.736000000    -5.275000000
O     2.899000000     2.053000000    -4.690000000
H     2.351000000     1.272000000    -4.766000000
H     3.207000000     2.217000000    -5.581000000
O     3.367000000    -1.673000000    -4.520000000
H     3.942000000    -1.457000000    -5.255000000
H     3.807000000    -1.302000000    -3.755000000
O     1.262000000    -0.115000000    -4.961000000
H     1.892000000    -0.761000000    -4.643000000
H     0.468000000    -0.286000000    -4.455000000
O    -2.835000000     1.855000000    -5.929000000
H    -3.035000000     1.985000000    -5.002000000
H    -2.052000000     2.384000000    -6.082000000
O    -6.304000000     2.746000000    -1.518000000
H    -5.909000000     1.957000000    -1.148000000
H    -7.157000000     2.458000000    -1.842000000
O    -2.290000000     2.809000000    -3.216000000
H    -1.337000000     2.848000000    -3.297000000
H    -2.445000000     2.188000000    -2.505000000
O     0.977000000    -3.592000000     2.357000000
H     1.803000000    -4.056000000     2.494000000
H     1.192000000    -2.901000000     1.731000000
O    -4.521000000    -3.950000000    -5.017000000
H    -4.886000000    -3.146000000    -5.388000000
H    -3.985000000    -3.652000000    -4.282000000
O    -0.790000000     4.473000000    -5.645000000
H    -0.949000000     4.072000000    -6.500000000
H    -0.355000000     3.789000000    -5.137000000
O     6.047000000    -1.712000000     2.638000000
H     6.751000000    -1.095000000     2.436000000
H     5.271000000    -1.162000000     2.748000000
O    -2.661000000    -0.780000000    -5.670000000
H    -2.435000000     0.086000000    -6.009000000
H    -2.144000000    -0.868000000    -4.870000000
O     3.946000000    -1.128000000    -1.597000000
H     4.616000000    -1.574000000    -1.079000000
H     4.233000000    -0.216000000    -1.627000000
O     0.032000000     1.928000000    -6.209000000
H     0.445000000     1.946000000    -7.072000000
H     0.533000000     1.276000000    -5.718000000
O    -2.587000000     2.195000000    -0.339000000
H    -3.357000000     1.918000000     0.158000000
H    -1.916000000     1.548000000    -0.122000000
O     2.066000000    -3.684000000    -5.172000000
H     2.586000000    -2.894000000    -5.026000000
H     2.708000000    -4.355000000    -5.402000000
O    -4.834000000     0.889000000     0.853000000
H    -4.927000000     0.539000000    -0.033000000
H    -5.730000000     1.084000000     1.129000000
O    -1.367000000    -1.532000000    -8.379000000
H    -1.680000000    -1.505000000    -7.475000000
H    -2.161000000    -1.633000000    -8.904000000
O     2.265000000     2.711000000     3.082000000
H     1.376000000     2.369000000     3.173000000
H     2.256000000     3.534000000     3.570000000
O     1.850000000    -1.298000000     4.153000000
H     2.054000000    -0.882000000     3.315000000
H     2.459000000    -0.897000000     4.774000000
O     2.111000000    -2.191000000     0.142000000
H     2.696000000    -1.607000000    -0.342000000
H     1.323000000    -1.669000000     0.293000000
O     2.616000000     4.159000000     0.624000000
H     1.789000000     3.961000000     0.185000000
H     2.520000000     3.782000000     1.498000000
O     5.942000000     0.651000000     5.127000000
H     5.472000000     0.925000000     4.340000000
H     5.254000000     0.496000000     5.775000000
O    -4.119000000     2.537000000     4.818000000
H    -3.778000000     1.797000000     4.316000000
H    -4.361000000     2.162000000     5.664000000
O    -4.899000000     0.343000000    -1.798000000
H    -5.334000000     0.630000000    -2.601000000
H    -4.214000000    -0.255000000    -2.097000000
O    -3.005000000    -3.462000000    -2.716000000
H    -2.874000000    -2.521000000    -2.838000000
H    -2.126000000    -3.836000000    -2.779000000
O     3.733000000    -1.589000000     6.323000000
H     3.739000000    -0.883000000     6.970000000
H     3.942000000    -2.376000000     6.825000000
O    -0.373000000     2.127000000     3.367000000
H    -1.131000000     1.804000000     2.880000000
H    -0.608000000     3.023000000     3.610000000
O    -3.569000000     0.453000000     3.204000000
H    -4.041000000    -0.203000000     3.716000000
H    -3.932000000     0.376000000     2.322000000
O     3.577000000    -4.319000000     1.874000000
H     4.443000000    -4.409000000     1.475000000
H     3.012000000    -4.028000000     1.158000000
O    -1.140000000    -6.004000000    -4.031000000
H    -1.553000000    -6.256000000    -4.857000000
H    -0.881000000    -5.091000000    -4.161000000
O     4.895000000     1.614000000    -2.943000000
H     5.673000000     1.883000000    -3.430000000
H     4.162000000     1.973000000    -3.444000000
O     0.338000000     3.130000000    -3.171000000
H     0.824000000     2.524000000    -3.730000000
H     1.012000000     3.667000000    -2.755000000
O    -5.310000000    -4.096000000    -1.293000000
H    -4.471000000    -3.954000000    -1.732000000
H    -5.906000000    -4.359000000    -1.995000000
O    -0.971000000    -1.334000000     4.744000000
H    -0.079000000    -1.446000000     4.417000000
H    -1.348000000    -0.654000000     4.185000000
O     0.058000000    -0.360000000     7.398000000
H     0.536000000    -0.048000000     8.166000000
H     0.567000000    -1.108000000     7.086000000
