158
-3016.79361
C    -0.722000000    -1.285000000     0.175000000
H    -1.021000000    -2.328000000     0.237000000
C    -0.101000000    -0.584000000     1.188000000
H    -0.053000000    -0.986000000     2.197000000
C     0.504000000     0.682000000     0.949000000
H     0.999000000     1.201000000     1.816000000
C     0.487000000     1.176000000    -0.340000000
H     1.108000000     2.025000000    -0.612000000
C    -0.186000000     0.481000000    -1.377000000
H    -0.147000000     0.873000000    -2.390000000
C    -0.739000000    -0.777000000    -1.141000000
C    -1.341000000    -1.527000000    -2.349000000
O    -1.872000000    -2.593000000    -2.245000000
O    -1.251000000    -0.965000000    -3.414000000
O    -0.761000000     5.019000000     0.141000000
H    -1.197000000     5.641000000     0.724000000
H     0.172000000     5.211000000     0.242000000
O     0.359000000     2.631000000    -5.395000000
H    -0.533000000     2.878000000    -5.639000000
H     0.596000000     1.944000000    -6.019000000
O     0.951000000     3.759000000     2.566000000
H     1.126000000     4.355000000     3.294000000
H     0.006000000     3.825000000     2.425000000
O    -0.969000000     1.661000000     5.134000000
H    -1.169000000     2.193000000     4.364000000
H    -1.146000000     0.762000000     4.857000000
O    -3.016000000    -3.394000000    -4.879000000
H    -3.246000000    -2.804000000    -4.161000000
H    -2.140000000    -3.709000000    -4.659000000
O     3.317000000     3.871000000     5.422000000
H     4.220000000     3.609000000     5.246000000
H     3.312000000     4.103000000     6.351000000
O     4.663000000     0.321000000    -3.435000000
H     3.828000000     0.790000000    -3.460000000
H     4.769000000    -0.025000000    -4.321000000
O     1.607000000     1.063000000    -7.055000000
H     1.540000000     0.219000000    -6.607000000
H     2.430000000     1.012000000    -7.540000000
O    -1.682000000    -3.089000000     3.110000000
H    -1.004000000    -2.931000000     2.452000000
H    -1.269000000    -3.680000000     3.741000000
O    -0.597000000    -0.638000000    -5.864000000
H    -0.533000000    -1.581000000    -6.018000000
H    -0.728000000    -0.559000000    -4.919000000
O    -4.556000000    -2.065000000    -1.807000000
H    -4.806000000    -2.984000000    -1.908000000
H    -3.605000000    -2.062000000    -1.918000000
O    -2.595000000     4.163000000     3.246000000
H    -2.722000000     3.402000000     2.680000000
H    -3.185000000     4.014000000     3.984000000
O     2.132000000    -3.148000000    -3.414000000
H     2.468000000    -2.589000000    -2.713000000
H     2.855000000    -3.742000000    -3.614000000
O    -5.657000000     0.697000000    -5.032000000
H    -6.354000000     0.659000000    -4.377000000
H    -4.849000000     0.602000000    -4.527000000
O    -4.860000000    -1.839000000     0.940000000
H    -3.984000000    -1.648000000     1.276000000
H    -4.782000000    -1.728000000    -0.008000000
O    -1.765000000     5.652000000    -3.965000000
H    -2.477000000     6.291000000    -4.016000000
H    -2.058000000     5.018000000    -3.311000000
O     1.376000000    -2.760000000     6.044000000
H     1.802000000    -2.203000000     5.392000000
H     0.655000000    -2.226000000     6.380000000
O     3.951000000     5.465000000     2.189000000
H     4.876000000     5.235000000     2.278000000
H     3.816000000     6.167000000     2.824000000
O    -3.074000000     0.895000000    -4.224000000
H    -2.390000000     0.311000000    -3.897000000
H    -2.719000000     1.775000000    -4.096000000
O    -3.346000000     0.894000000    -6.946000000
H    -3.317000000     0.674000000    -6.014000000
H    -3.269000000     1.847000000    -6.970000000
O     2.482000000     2.007000000    -3.791000000
H     2.533000000     2.541000000    -2.998000000
H     1.661000000     2.272000000    -4.205000000
O     1.228000000     5.391000000     4.591000000
H     2.016000000     4.918000000     4.857000000
H     0.600000000     5.224000000     5.293000000
O    -5.755000000    -4.473000000    -2.009000000
H    -5.363000000    -5.311000000    -2.255000000
H    -6.107000000    -4.124000000    -2.828000000
O     3.353000000     3.439000000    -1.517000000
H     3.099000000     3.261000000    -0.612000000
H     3.979000000     4.161000000    -1.453000000
O     1.485000000     6.146000000     0.778000000
H     1.063000000     6.624000000     1.492000000
H     2.245000000     5.730000000     1.184000000
O     1.731000000     1.589000000     5.424000000
H     2.168000000     2.414000000     5.213000000
H     0.798000000     1.803000000     5.416000000
O     4.280000000     1.082000000     6.489000000
H     3.446000000     0.896000000     6.059000000
H     4.077000000     1.774000000     7.119000000
O     0.895000000     5.725000000    -4.745000000
H    -0.008000000     6.001000000    -4.586000000
H     0.852000000     4.769000000    -4.766000000
O    -3.998000000     3.006000000     0.250000000
H    -4.918000000     3.057000000     0.512000000
H    -3.626000000     2.330000000     0.816000000
O    -2.621000000    -6.603000000    -4.409000000
H    -2.940000000    -6.251000000    -5.240000000
H    -1.851000000    -7.118000000    -4.648000000
O    -2.124000000    -5.251000000    -1.825000000
H    -2.202000000    -5.365000000    -2.772000000
H    -2.157000000    -4.304000000    -1.694000000
O     0.456000000    -4.540000000     1.684000000
H     0.354000000    -5.119000000     0.928000000
H     1.389000000    -4.327000000     1.698000000
O    -0.037000000    -6.332000000    -0.395000000
H     0.575000000    -6.501000000    -1.111000000
H    -0.757000000    -5.851000000    -0.803000000
O    -1.211000000    -6.876000000     1.933000000
H    -0.740000000    -6.917000000     1.100000000
H    -1.021000000    -6.002000000     2.273000000
O     2.721000000    -1.053000000    -0.115000000
H     2.269000000    -0.283000000    -0.460000000
H     2.031000000    -1.568000000     0.304000000
O    -0.054000000    -0.370000000     7.166000000
H     0.110000000     0.482000000     6.760000000
H    -0.988000000    -0.524000000     7.030000000
O    -4.335000000    -4.434000000     2.758000000
H    -5.088000000    -4.821000000     3.204000000
H    -3.600000000    -4.590000000     3.351000000
O     2.283000000    -2.019000000    -6.302000000
H     2.259000000    -2.621000000    -7.046000000
H     1.763000000    -2.454000000    -5.626000000
O    -2.518000000     1.498000000     2.073000000
H    -2.608000000     0.820000000     2.742000000
H    -1.893000000     1.134000000     1.446000000
O    -3.459000000    -5.300000000    -6.683000000
H    -3.334000000    -4.446000000    -6.269000000
H    -3.693000000    -5.094000000    -7.588000000
O    -3.235000000    -1.779000000    -7.446000000
H    -3.168000000    -0.841000000    -7.621000000
H    -2.911000000    -1.881000000    -6.551000000
O    -0.280000000    -3.467000000    -5.157000000
H    -0.098000000    -3.098000000    -4.292000000
H     0.139000000    -4.328000000    -5.143000000
O    -2.287000000     3.748000000    -1.795000000
H    -1.572000000     4.210000000    -1.358000000
H    -2.960000000     3.656000000    -1.121000000
O     2.913000000    -3.062000000     1.916000000
H     3.681000000    -2.772000000     1.425000000
H     3.243000000    -3.240000000     2.796000000
O     3.160000000     2.979000000     1.210000000
H     2.325000000     3.160000000     1.642000000
H     3.745000000     3.669000000     1.521000000
O    -2.481000000    -0.650000000     3.854000000
H    -2.231000000    -1.567000000     3.735000000
H    -3.028000000    -0.651000000     4.640000000
O     4.885000000     0.766000000     0.424000000
H     4.290000000     0.031000000     0.278000000
H     4.313000000     1.532000000     0.465000000
O     2.804000000    -0.856000000     4.924000000
H     3.702000000    -0.570000000     4.759000000
H     2.280000000    -0.059000000     4.839000000
