158
-3047.01561
C     0.257000000    -1.469000000     0.045000000
H     0.492000000    -2.529000000     0.103000000
C     0.961000000    -0.484000000     0.747000000
H     1.827000000    -0.829000000     1.308000000
C     0.720000000     0.816000000     0.678000000
H     1.321000000     1.515000000     1.205000000
C    -0.359000000     1.180000000    -0.131000000
H    -0.672000000     2.210000000    -0.279000000
C    -1.105000000     0.233000000    -0.827000000
H    -1.923000000     0.551000000    -1.467000000
C    -0.845000000    -1.130000000    -0.767000000
C    -1.720000000    -2.123000000    -1.524000000
O    -1.575000000    -3.292000000    -1.324000000
O    -2.702000000    -1.722000000    -2.127000000
O    -1.850000000     4.301000000    -1.567000000
H    -1.245000000     4.425000000    -0.836000000
H    -2.476000000     3.650000000    -1.252000000
O    -2.668000000     2.699000000    -4.623000000
H    -2.306000000     2.825000000    -3.746000000
H    -2.746000000     1.749000000    -4.716000000
O    -1.171000000     4.017000000     2.860000000
H    -1.872000000     3.469000000     3.212000000
H    -1.258000000     4.848000000     3.328000000
O     1.768000000    -7.216000000    -2.042000000
H     1.142000000    -6.907000000    -1.387000000
H     1.283000000    -7.194000000    -2.867000000
O    -4.122000000     2.446000000     2.507000000
H    -3.744000000     2.789000000     3.317000000
H    -5.028000000     2.237000000     2.736000000
O    -0.042000000    -5.917000000    -4.091000000
H     0.393000000    -5.087000000    -3.894000000
H    -0.871000000    -5.871000000    -3.614000000
O    -2.099000000     0.023000000    -4.035000000
H    -2.446000000    -0.524000000    -3.331000000
H    -1.165000000     0.103000000    -3.838000000
O    -3.363000000    -5.156000000    -4.557000000
H    -3.405000000    -6.016000000    -4.976000000
H    -3.106000000    -5.343000000    -3.654000000
O     1.449000000     3.390000000     4.287000000
H     2.380000000     3.356000000     4.065000000
H     1.012000000     3.577000000     3.456000000
O     4.393000000     2.071000000    -3.782000000
H     4.622000000     2.163000000    -4.707000000
H     3.593000000     2.586000000    -3.680000000
O    -4.051000000    -0.669000000     0.282000000
H    -3.756000000    -1.143000000    -0.496000000
H    -3.281000000    -0.637000000     0.849000000
O    -1.948000000    -5.557000000     2.238000000
H    -2.218000000    -4.694000000     1.924000000
H    -1.628000000    -5.398000000     3.126000000
O    -3.545000000    -0.503000000    -6.467000000
H    -3.030000000    -1.151000000    -6.948000000
H    -3.177000000    -0.514000000    -5.583000000
O    -6.461000000    -3.443000000    -0.765000000
H    -6.466000000    -3.786000000    -1.659000000
H    -5.557000000    -3.553000000    -0.472000000
O     0.937000000    -3.480000000    -3.334000000
H     0.567000000    -2.786000000    -3.879000000
H     1.675000000    -3.066000000    -2.887000000
O    -5.047000000    -3.167000000    -3.152000000
H    -4.714000000    -3.818000000    -3.770000000
H    -4.264000000    -2.820000000    -2.724000000
O    -4.365000000    -6.451000000    -1.066000000
H    -5.174000000    -6.121000000    -1.457000000
H    -4.657000000    -7.100000000    -0.426000000
O     3.526000000     3.373000000     2.718000000
H     3.757000000     2.541000000     2.305000000
H     3.533000000     4.007000000     2.001000000
O    -6.873000000     1.356000000     0.117000000
H    -6.287000000     0.810000000    -0.407000000
H    -7.027000000     0.847000000     0.913000000
O     0.557000000     6.625000000     2.488000000
H    -0.228000000     6.814000000     3.003000000
H     1.260000000     6.569000000     3.136000000
O    -7.230000000    -2.443000000    -4.485000000
H    -6.420000000    -2.503000000    -3.979000000
H    -7.026000000    -1.833000000    -5.194000000
O     0.414000000    -2.197000000     3.485000000
H     1.184000000    -2.765000000     3.481000000
H     0.770000000    -1.309000000     3.498000000
O     4.266000000     0.719000000    -1.165000000
H     3.507000000     0.178000000    -1.381000000
H     4.424000000     1.237000000    -1.954000000
O     3.566000000     5.407000000     0.789000000
H     3.069000000     6.224000000     0.813000000
H     3.851000000     5.325000000    -0.121000000
O    -5.538000000     0.304000000    -2.026000000
H    -4.895000000    -0.386000000    -1.867000000
H    -6.309000000    -0.158000000    -2.357000000
O     3.385000000    -2.994000000    -1.213000000
H     3.314000000    -3.926000000    -1.007000000
H     3.550000000    -2.574000000    -0.369000000
O     0.980000000     3.304000000    -4.358000000
H     0.897000000     4.213000000    -4.070000000
H     1.093000000     2.806000000    -3.549000000
O     0.217000000     4.444000000     6.663000000
H    -0.097000000     4.061000000     5.844000000
H     0.885000000     3.833000000     6.973000000
O     1.613000000     3.132000000    -1.766000000
H     1.091000000     3.780000000    -1.293000000
H     1.244000000     2.289000000    -1.505000000
O    -3.575000000    -4.042000000     0.186000000
H    -3.770000000    -4.903000000    -0.184000000
H    -2.779000000    -3.762000000    -0.266000000
O     6.510000000    -0.312000000     2.410000000
H     6.497000000     0.477000000     2.951000000
H     6.846000000    -0.995000000     2.990000000
O     1.701000000     6.179000000     5.017000000
H     1.577000000     6.879000000     5.657000000
H     0.929000000     5.623000000     5.118000000
O     4.052000000     4.903000000     5.289000000
H     4.478000000     4.638000000     4.474000000
H     3.221000000     5.287000000     5.012000000
O     3.813000000     4.858000000    -1.908000000
H     3.219000000     4.110000000    -1.960000000
H     3.774000000     5.256000000    -2.778000000
O    -2.076000000    -5.755000000    -2.050000000
H    -2.579000000    -6.202000000    -1.368000000
H    -1.971000000    -4.862000000    -1.723000000
O     2.674000000    -3.902000000     3.621000000
H     2.396000000    -4.601000000     3.029000000
H     3.557000000    -4.153000000     3.891000000
O     3.687000000    -5.606000000    -0.722000000
H     3.432000000    -6.138000000     0.032000000
H     3.138000000    -5.926000000    -1.437000000
O     1.593000000    -6.311000000     1.967000000
H     1.100000000    -5.905000000     1.254000000
H     2.086000000    -7.015000000     1.546000000
O     0.895000000     0.000000000    -3.919000000
H     0.855000000     0.030000000    -4.875000000
H     1.771000000    -0.332000000    -3.727000000
O    -1.886000000    -0.682000000     2.571000000
H    -1.113000000    -1.148000000     2.890000000
H    -1.537000000     0.114000000     2.169000000
O     0.662000000    -5.264000000    -0.344000000
H    -0.129000000    -5.802000000    -0.371000000
H     0.455000000    -4.507000000    -0.893000000
O    -1.515000000    -3.377000000    -6.004000000
H    -1.594000000    -3.671000000    -5.097000000
H    -1.627000000    -4.172000000    -6.525000000
O    -4.095000000     2.756000000    -1.344000000
H    -4.553000000     2.070000000    -1.831000000
H    -4.280000000     2.561000000    -0.425000000
O     4.598000000    -2.274000000     1.430000000
H     5.052000000    -1.450000000     1.605000000
H     4.191000000    -2.505000000     2.265000000
O     0.009000000     4.599000000     0.511000000
H    -0.397000000     4.152000000     1.253000000
H     0.552000000     5.279000000     0.908000000
O    -5.002000000    -2.826000000     1.985000000
H    -4.830000000    -1.965000000     1.604000000
H    -4.385000000    -3.411000000     1.546000000
O     4.244000000     1.198000000     1.423000000
H     5.028000000     0.778000000     1.776000000
H     4.322000000     1.093000000     0.475000000
O     1.220000000     0.406000000     4.107000000
H     2.072000000     0.362000000     4.541000000
H     1.148000000     1.313000000     3.810000000
