158
-3032.42972
C    -0.835000000    -1.138000000    -0.571000000
H    -1.253000000    -1.998000000    -1.088000000
C     0.137000000    -1.281000000     0.386000000
H     0.484000000    -2.270000000     0.675000000
C     0.807000000    -0.171000000     0.915000000
H     1.625000000    -0.371000000     1.661000000
C     0.464000000     1.044000000     0.473000000
H     0.992000000     1.934000000     0.808000000
C    -0.570000000     1.218000000    -0.432000000
H    -0.734000000     2.249000000    -0.734000000
C    -1.268000000     0.154000000    -0.996000000
C    -2.108000000     0.428000000    -2.167000000
O    -2.571000000    -0.503000000    -2.743000000
O    -2.445000000     1.580000000    -2.444000000
O    -6.363000000     0.104000000    -3.020000000
H    -6.375000000    -0.823000000    -3.258000000
H    -5.662000000     0.479000000    -3.553000000
O     4.638000000    -2.255000000    -0.036000000
H     3.838000000    -2.268000000     0.491000000
H     4.670000000    -3.120000000    -0.444000000
O    -1.049000000     0.220000000     3.589000000
H    -0.442000000     0.456000000     4.291000000
H    -0.603000000     0.488000000     2.786000000
O    -1.073000000    -2.393000000    -6.636000000
H    -0.602000000    -2.535000000    -5.815000000
H    -1.945000000    -2.103000000    -6.365000000
O    -3.487000000    -1.067000000     3.571000000
H    -3.676000000    -0.510000000     2.815000000
H    -2.579000000    -0.861000000     3.797000000
O    -1.030000000     1.794000000    -4.857000000
H    -1.746000000     1.857000000    -5.489000000
H    -1.464000000     1.766000000    -4.005000000
O    -6.718000000    -2.857000000    -2.672000000
H    -6.921000000    -3.786000000    -2.566000000
H    -5.786000000    -2.790000000    -2.461000000
O     0.158000000     6.206000000    -0.503000000
H     0.298000000     5.458000000    -1.083000000
H    -0.458000000     6.765000000    -0.977000000
O     2.282000000    -2.714000000     5.379000000
H     3.094000000    -3.055000000     5.006000000
H     2.326000000    -2.951000000     6.305000000
O    -2.136000000    -4.547000000    -2.797000000
H    -2.911000000    -4.217000000    -2.341000000
H    -2.141000000    -5.489000000    -2.626000000
O     4.339000000    -0.373000000     1.885000000
H     5.047000000    -0.412000000     2.528000000
H     4.772000000    -0.514000000     1.043000000
O     2.297000000     1.920000000    -3.369000000
H     2.307000000     0.967000000    -3.447000000
H     3.139000000     2.200000000    -3.730000000
O     1.829000000     2.600000000     5.552000000
H     2.742000000     2.691000000     5.280000000
H     1.603000000     1.696000000     5.331000000
O     2.034000000    -4.850000000     0.771000000
H     1.106000000    -4.749000000     0.560000000
H     2.153000000    -5.793000000     0.883000000
O    -0.032000000    -5.449000000    -0.791000000
H    -0.901000000    -5.849000000    -0.767000000
H     0.431000000    -5.924000000    -1.481000000
O    -3.241000000     5.211000000    -4.764000000
H    -3.039000000     4.681000000    -5.535000000
H    -2.953000000     4.677000000    -4.024000000
O    -4.001000000    -2.470000000    -1.759000000
H    -3.950000000    -2.326000000    -0.814000000
H    -3.475000000    -1.764000000    -2.137000000
O    -3.763000000     1.170000000     1.889000000
H    -3.725000000     1.808000000     2.601000000
H    -3.003000000     1.375000000     1.344000000
O     5.619000000     2.400000000    -1.773000000
H     4.808000000     1.915000000    -1.619000000
H     5.941000000     2.612000000    -0.897000000
O     7.774000000    -2.129000000    -0.264000000
H     8.054000000    -1.751000000    -1.098000000
H     6.820000000    -2.055000000    -0.276000000
O     1.191000000     0.094000000     5.285000000
H     1.773000000    -0.666000000     5.278000000
H     0.915000000     0.175000000     6.198000000
O     0.953000000     3.945000000    -1.687000000
H     1.507000000     3.848000000    -0.912000000
H     1.371000000     3.397000000    -2.351000000
O     6.983000000    -0.695000000     3.254000000
H     7.336000000    -0.379000000     2.422000000
H     7.756000000    -0.923000000     3.771000000
O     2.406000000    -0.307000000    -1.788000000
H     2.731000000     0.507000000    -1.404000000
H     1.541000000    -0.428000000    -1.397000000
O     4.728000000    -5.193000000    -0.426000000
H     4.726000000    -5.539000000    -1.319000000
H     3.837000000    -5.339000000    -0.110000000
O    -4.051000000     4.158000000     0.310000000
H    -3.844000000     4.943000000    -0.197000000
H    -4.287000000     3.503000000    -0.348000000
O    -4.274000000     1.126000000    -4.440000000
H    -3.536000000     0.820000000    -3.914000000
H    -3.894000000     1.776000000    -5.030000000
O     1.716000000     6.639000000     1.678000000
H     2.188000000     7.431000000     1.422000000
H     0.950000000     6.621000000     1.104000000
O     1.454000000     1.786000000    -6.114000000
H     1.904000000     2.112000000    -5.335000000
H     0.527000000     1.789000000    -5.874000000
O    -3.887000000    -2.944000000     0.998000000
H    -3.001000000    -3.214000000     1.242000000
H    -4.460000000    -3.519000000     1.505000000
O    -4.129000000    -4.438000000    -5.785000000
H    -3.861000000    -3.623000000    -5.360000000
H    -3.573000000    -4.497000000    -6.562000000
O    -3.415000000    -1.882000000    -5.373000000
H    -4.199000000    -1.524000000    -5.789000000
H    -3.367000000    -1.434000000    -4.528000000
O     0.211000000    -2.682000000     3.400000000
H    -0.345000000    -1.936000000     3.622000000
H     0.882000000    -2.692000000     4.083000000
O     6.157000000     3.111000000     1.225000000
H     5.333000000     3.516000000     1.494000000
H     6.615000000     3.798000000     0.742000000
O     3.133000000     4.359000000     0.736000000
H     2.641000000     5.077000000     1.134000000
H     3.450000000     4.716000000    -0.093000000
O    -7.155000000     3.856000000    -0.318000000
H    -7.423000000     3.051000000     0.127000000
H    -6.202000000     3.787000000    -0.383000000
O     3.536000000     1.660000000    -0.099000000
H     3.416000000     2.567000000     0.182000000
H     3.627000000     1.167000000     0.716000000
O     1.332000000    -4.294000000    -3.566000000
H     0.764000000    -5.063000000    -3.609000000
H     0.775000000    -3.569000000    -3.848000000
O     3.582000000    -2.811000000    -3.056000000
H     2.722000000    -3.085000000    -3.374000000
H     3.392000000    -2.264000000    -2.294000000
O    -4.815000000     2.308000000    -1.254000000
H    -4.097000000     1.989000000    -1.801000000
H    -5.550000000     1.731000000    -1.464000000
O    -5.606000000    -0.608000000     0.900000000
H    -5.041000000    -1.304000000     0.564000000
H    -5.002000000     0.093000000     1.145000000
O    -0.480000000    -2.315000000    -3.840000000
H    -0.946000000    -3.053000000    -3.449000000
H    -0.791000000    -1.551000000    -3.354000000
O    -1.414000000    -4.061000000     1.526000000
H    -0.687000000    -3.983000000     2.143000000
H    -1.009000000    -4.367000000     0.715000000
O    -3.389000000     2.543000000    -6.661000000
H    -3.892000000     3.338000000    -6.838000000
H    -3.714000000     1.907000000    -7.297000000
O     5.345000000    -4.777000000     2.506000000
H     4.643000000    -4.192000000     2.793000000
H     5.651000000    -4.398000000     1.682000000
O    -1.960000000     4.131000000    -2.746000000
H    -1.079000000     4.283000000    -2.404000000
H    -2.074000000     3.182000000    -2.703000000
O     3.326000000    -3.126000000     2.594000000
H     3.061000000    -2.207000000     2.543000000
H     2.802000000    -3.563000000     1.922000000
O     4.402000000     3.478000000     4.996000000
H     4.751000000     4.304000000     4.662000000
H     5.145000000     2.875000000     4.968000000
