158
-3014.04359
C    -0.663000000    -0.958000000    -0.884000000
H    -1.032000000    -1.737000000    -1.547000000
C     0.048000000    -1.322000000     0.226000000
H     0.139000000    -2.384000000     0.438000000
C     0.550000000    -0.322000000     1.071000000
H     1.239000000    -0.569000000     1.837000000
C     0.391000000     1.017000000     0.755000000
H     0.993000000     1.788000000     1.229000000
C    -0.374000000     1.400000000    -0.332000000
H    -0.326000000     2.470000000    -0.518000000
C    -0.918000000     0.426000000    -1.188000000
C    -1.793000000     0.813000000    -2.377000000
O    -2.725000000     0.104000000    -2.755000000
O    -1.456000000     1.857000000    -2.988000000
O    -5.860000000     3.398000000    -0.355000000
H    -6.577000000     3.807000000    -0.839000000
H    -5.333000000     2.966000000    -1.027000000
O    -2.329000000     7.156000000    -0.154000000
H    -2.092000000     6.257000000     0.077000000
H    -3.220000000     7.262000000     0.178000000
O     4.730000000    -4.114000000     5.524000000
H     4.446000000    -4.825000000     6.098000000
H     3.918000000    -3.754000000     5.167000000
O     5.364000000    -3.598000000    -0.555000000
H     5.691000000    -3.181000000    -1.351000000
H     4.540000000    -4.007000000    -0.820000000
O    -1.090000000    -1.485000000     3.320000000
H    -0.190000000    -1.160000000     3.332000000
H    -1.421000000    -1.239000000     2.456000000
O    -2.380000000     1.521000000    -5.588000000
H    -3.025000000     0.821000000    -5.486000000
H    -2.220000000     1.832000000    -4.697000000
O    -7.787000000    -1.604000000    -2.179000000
H    -7.824000000    -2.538000000    -1.972000000
H    -6.885000000    -1.457000000    -2.463000000
O     0.458000000     7.633000000    -0.463000000
H     0.946000000     6.834000000    -0.262000000
H    -0.459000000     7.392000000    -0.332000000
O    -7.260000000    -0.659000000    -5.161000000
H    -8.197000000    -0.463000000    -5.166000000
H    -6.982000000    -0.478000000    -4.263000000
O     3.066000000    -0.940000000     5.957000000
H     3.156000000    -1.531000000     5.210000000
H     3.966000000    -0.716000000     6.196000000
O    -2.642000000    -5.161000000    -2.818000000
H    -3.345000000    -5.404000000    -3.421000000
H    -3.024000000    -4.476000000    -2.270000000
O     4.739000000    -2.748000000     2.087000000
H     5.372000000    -2.036000000     2.174000000
H     4.768000000    -2.985000000     1.160000000
O     2.956000000     4.121000000    -2.889000000
H     3.776000000     4.190000000    -3.378000000
H     2.451000000     3.458000000    -3.359000000
O     1.354000000     3.794000000     4.830000000
H     2.217000000     3.930000000     5.222000000
H     1.156000000     2.874000000     5.002000000
O     1.430000000    -5.141000000     2.128000000
H     0.801000000    -4.962000000     1.429000000
H     2.055000000    -5.752000000     1.738000000
O    -0.845000000    -4.934000000     0.737000000
H    -1.447000000    -4.300000000     0.348000000
H    -0.682000000    -5.569000000     0.040000000
O    -4.454000000     3.068000000    -5.049000000
H    -3.776000000     2.536000000    -5.467000000
H    -5.047000000     3.304000000    -5.762000000
O    -3.722000000     5.349000000    -3.836000000
H    -4.078000000     4.592000000    -4.301000000
H    -2.915000000     5.027000000    -3.436000000
O    -0.930000000    -2.148000000    -6.308000000
H    -0.892000000    -1.689000000    -7.147000000
H    -1.860000000    -2.335000000    -6.179000000
O    -5.142000000    -1.132000000    -2.755000000
H    -4.457000000    -0.488000000    -2.937000000
H    -5.142000000    -1.219000000    -1.802000000
O    -2.631000000     0.256000000     1.377000000
H    -1.790000000     0.416000000     0.948000000
H    -2.963000000     1.130000000     1.586000000
O     1.113000000     1.143000000     5.317000000
H     1.480000000     0.331000000     5.665000000
H     0.173000000     0.974000000     5.257000000
O     2.245000000     5.471000000    -0.443000000
H     2.737000000     5.050000000     0.262000000
H     2.571000000     5.057000000    -1.242000000
O    -3.714000000    -0.672000000     4.775000000
H    -4.176000000    -1.284000000     5.348000000
H    -3.046000000    -1.206000000     4.345000000
O     2.388000000    -0.526000000    -1.790000000
H     2.550000000     0.307000000    -1.348000000
H     1.781000000    -0.989000000    -1.212000000
O     1.181000000     2.175000000    -3.937000000
H     1.374000000     1.436000000    -4.514000000
H     0.264000000     2.053000000    -3.691000000
O     3.314000000    -4.956000000    -1.412000000
H     3.204000000    -5.363000000    -2.272000000
H     2.424000000    -4.881000000    -1.068000000
O     6.062000000     0.866000000     4.083000000
H     6.515000000     1.464000000     4.677000000
H     5.983000000     0.050000000     4.578000000
O    -3.683000000     2.579000000     2.067000000
H    -3.303000000     3.112000000     2.765000000
H    -4.613000000     2.804000000     2.074000000
O    -4.397000000     2.387000000    -2.412000000
H    -3.690000000     1.742000000    -2.372000000
H    -4.466000000     2.609000000    -3.341000000
O     0.173000000    -6.268000000    -1.380000000
H     0.186000000    -5.951000000    -2.283000000
H     0.155000000    -7.222000000    -1.462000000
O     0.311000000     0.166000000    -5.563000000
H     0.263000000    -0.788000000    -5.625000000
H    -0.592000000     0.442000000    -5.407000000
O    -4.155000000    -3.515000000    -1.069000000
H    -4.981000000    -3.542000000    -1.551000000
H    -4.099000000    -4.370000000    -0.642000000
O     0.891000000     3.985000000    -6.047000000
H     1.102000000     3.321000000    -5.390000000
H     0.306000000     3.539000000    -6.659000000
O     4.766000000     1.924000000     1.792000000
H     5.009000000     1.725000000     2.696000000
H     5.577000000     2.235000000     1.389000000
O     2.835000000     3.986000000     1.920000000
H     2.160000000     3.714000000     2.541000000
H     3.326000000     3.186000000     1.734000000
O     3.688000000     1.601000000    -0.657000000
H     3.577000000     2.515000000    -0.920000000
H     4.132000000     1.647000000     0.189000000
O    -0.085000000    -3.211000000    -3.573000000
H    -0.314000000    -3.935000000    -2.990000000
H    -0.911000000    -2.972000000    -3.994000000
O     2.331000000    -2.136000000    -4.220000000
H     2.391000000    -1.421000000    -3.585000000
H     1.520000000    -2.591000000    -3.992000000
O    -2.969000000     4.422000000    -0.127000000
H    -3.703000000     4.038000000    -0.606000000
H    -2.844000000     3.843000000     0.624000000
O    -4.591000000    -1.068000000     0.079000000
H    -4.144000000    -1.724000000    -0.456000000
H    -3.888000000    -0.627000000     0.556000000
O    -2.996000000    -2.399000000    -3.935000000
H    -2.732000000    -1.506000000    -3.715000000
H    -3.747000000    -2.574000000    -3.368000000
O    -2.328000000    -3.653000000     2.562000000
H    -1.696000000    -4.260000000     2.176000000
H    -1.792000000    -2.941000000     2.912000000
O    -3.989000000    -0.579000000    -5.798000000
H    -4.245000000    -1.408000000    -5.394000000
H    -4.095000000    -0.728000000    -6.737000000
O    -1.379000000     4.642000000    -2.483000000
H    -2.014000000     4.656000000    -1.767000000
H    -1.437000000     3.754000000    -2.837000000
O     2.610000000    -3.037000000     3.608000000
H     3.330000000    -2.795000000     3.026000000
H     2.080000000    -3.645000000     3.093000000
O    -1.233000000     2.545000000    -7.770000000
H    -1.759000000     2.047000000    -8.396000000
H    -1.572000000     2.286000000    -6.913000000
O     3.968000000     3.131000000     5.156000000
H     4.701000000     3.395000000     4.600000000
H     4.052000000     2.180000000     5.227000000
