158
-3002.85532
C     0.899000000     0.597000000     1.026000000
H     1.428000000     1.021000000     1.876000000
C    -0.482000000     0.511000000     1.124000000
H    -1.003000000     0.934000000     1.980000000
C    -1.202000000    -0.143000000     0.087000000
H    -2.332000000    -0.138000000     0.097000000
C    -0.601000000    -0.559000000    -1.091000000
H    -1.213000000    -1.001000000    -1.873000000
C     0.787000000    -0.365000000    -1.153000000
H     1.369000000    -0.721000000    -2.000000000
C     1.521000000     0.204000000    -0.130000000
C     3.036000000     0.383000000    -0.209000000
O     3.619000000     0.361000000    -1.307000000
O     3.673000000     0.654000000     0.787000000
O    -3.933000000     1.672000000     2.676000000
H    -3.476000000     2.510000000     2.607000000
H    -3.455000000     1.193000000     3.352000000
O     5.555000000    -0.731000000    -4.854000000
H     5.016000000    -1.518000000    -4.932000000
H     5.110000000    -0.200000000    -4.193000000
O    -7.121000000    -0.547000000    -0.884000000
H    -6.887000000    -0.528000000     0.044000000
H    -7.501000000     0.315000000    -1.053000000
O    -5.397000000    -0.598000000     1.832000000
H    -5.202000000     0.301000000     2.098000000
H    -4.548000000    -1.039000000     1.841000000
O    -3.080000000    -5.416000000     2.211000000
H    -3.594000000    -5.162000000     2.978000000
H    -3.435000000    -6.267000000     1.955000000
O    -6.457000000     4.044000000    -0.867000000
H    -7.377000000     4.107000000    -0.612000000
H    -6.180000000     3.182000000    -0.557000000
O    -6.813000000     2.269000000    -2.937000000
H    -5.967000000     1.889000000    -3.175000000
H    -6.591000000     3.057000000    -2.442000000
O     3.601000000     0.115000000     3.286000000
H     4.301000000     0.484000000     3.825000000
H     3.762000000     0.469000000     2.411000000
O     3.568000000     0.821000000    -3.797000000
H     3.565000000     0.707000000    -2.847000000
H     2.746000000     1.273000000    -3.987000000
O    -1.448000000     2.169000000    -3.994000000
H    -1.570000000     2.978000000    -4.491000000
H    -1.080000000     1.552000000    -4.627000000
O     2.343000000    -3.288000000    -0.266000000
H     1.592000000    -3.069000000     0.286000000
H     2.186000000    -4.194000000    -0.534000000
O     1.623000000    -0.682000000    -5.888000000
H     1.198000000     0.174000000    -5.937000000
H     0.957000000    -1.259000000    -5.513000000
O    -2.073000000     1.572000000     5.334000000
H    -2.337000000     1.865000000     6.206000000
H    -2.311000000     2.297000000     4.755000000
O     4.036000000    -2.124000000    -2.511000000
H     3.666000000    -1.409000000    -1.993000000
H     3.685000000    -2.918000000    -2.107000000
O     6.588000000    -3.889000000    -2.386000000
H     7.110000000    -4.124000000    -3.153000000
H     6.117000000    -3.099000000    -2.649000000
O     5.256000000     3.106000000    -3.942000000
H     5.706000000     2.925000000    -3.117000000
H     4.967000000     2.247000000    -4.251000000
O     2.287000000    -2.351000000     3.366000000
H     2.607000000    -1.462000000     3.215000000
H     1.476000000    -2.404000000     2.860000000
O    -5.283000000    -2.060000000    -2.329000000
H    -5.314000000    -1.971000000    -3.281000000
H    -6.030000000    -1.550000000    -2.016000000
O     3.881000000    -2.499000000    -6.204000000
H     3.035000000    -2.138000000    -5.942000000
H     3.694000000    -2.995000000    -7.002000000
O    -0.631000000     4.089000000     0.903000000
H    -1.465000000     4.411000000     1.245000000
H    -0.809000000     3.890000000    -0.016000000
O    -3.059000000     4.009000000     3.620000000
H    -2.965000000     4.867000000     3.208000000
H    -3.748000000     4.131000000     4.274000000
O     6.284000000     0.661000000     0.880000000
H     6.443000000    -0.018000000     1.535000000
H     5.337000000     0.643000000     0.741000000
O    -4.953000000    -1.427000000     4.685000000
H    -4.741000000    -1.674000000     3.785000000
H    -5.695000000    -0.828000000     4.601000000
O    -5.014000000     1.895000000    -0.141000000
H    -4.487000000     1.385000000     0.475000000
H    -4.643000000     1.691000000    -0.999000000
O    -1.220000000    -4.356000000    -3.257000000
H    -1.284000000    -4.824000000    -2.425000000
H    -2.128000000    -4.230000000    -3.532000000
O     5.062000000    -2.053000000     0.698000000
H     4.668000000    -1.185000000     0.607000000
H     4.317000000    -2.644000000     0.806000000
O    -2.045000000    -1.048000000     6.098000000
H    -1.350000000    -1.134000000     6.751000000
H    -1.997000000    -0.135000000     5.816000000
O     2.304000000     3.170000000    -1.819000000
H     1.510000000     2.701000000    -1.563000000
H     3.016000000     2.676000000    -1.414000000
O    -3.497000000    -3.012000000    -0.339000000
H    -4.117000000    -2.590000000    -0.934000000
H    -2.639000000    -2.696000000    -0.623000000
O     5.631000000     5.398000000    -0.801000000
H     6.571000000     5.481000000    -0.638000000
H     5.464000000     4.456000000    -0.760000000
O     3.270000000     4.745000000    -3.782000000
H     4.067000000     4.270000000    -4.015000000
H     2.845000000     4.193000000    -3.126000000
O     8.518000000     0.257000000    -1.606000000
H     9.162000000    -0.021000000    -0.956000000
H     7.831000000     0.686000000    -1.095000000
O     0.546000000     2.503000000     4.962000000
H    -0.337000000     2.204000000     5.180000000
H     1.124000000     1.849000000     5.355000000
O    -6.718000000    -4.531000000    -1.605000000
H    -6.034000000    -3.883000000    -1.433000000
H    -6.253000000    -5.367000000    -1.640000000
O    -3.274000000     4.637000000     0.406000000
H    -3.592000000     3.872000000    -0.074000000
H    -4.054000000     5.174000000     0.545000000
O    -3.067000000    -1.277000000    -5.806000000
H    -3.125000000    -0.960000000    -6.708000000
H    -3.956000000    -1.562000000    -5.596000000
O    -3.917000000    -2.736000000     2.343000000
H    -4.509000000    -3.270000000     2.874000000
H    -3.794000000    -3.241000000     1.540000000
O     1.353000000     3.725000000     2.681000000
H     1.019000000     3.185000000     3.397000000
H     0.647000000     3.729000000     2.034000000
O    -3.301000000    -5.779000000    -1.198000000
H    -2.928000000    -5.028000000    -0.737000000
H    -3.706000000    -6.306000000    -0.509000000
O    -0.488000000    -1.903000000    -5.054000000
H    -1.418000000    -1.758000000    -5.230000000
H    -0.475000000    -2.557000000    -4.356000000
O     5.483000000     2.621000000    -1.201000000
H     5.934000000     2.356000000    -0.400000000
H     4.912000000     1.881000000    -1.410000000
O     6.016000000     2.371000000     4.206000000
H     6.025000000     2.927000000     4.985000000
H     5.384000000     2.789000000     3.621000000
O     2.072000000     0.679000000     6.012000000
H     2.371000000     0.123000000     5.293000000
H     2.422000000     0.262000000     6.799000000
O     3.941000000     3.022000000     2.068000000
H     3.101000000     3.416000000     2.301000000
H     3.709000000     2.243000000     1.563000000
O    -4.058000000     1.474000000    -2.944000000
H    -4.146000000     0.536000000    -3.116000000
H    -3.213000000     1.709000000    -3.327000000
O    -1.404000000    -2.363000000     3.406000000
H    -1.509000000    -1.927000000     4.252000000
H    -2.286000000    -2.382000000     3.035000000
O    -0.287000000     2.494000000    -1.622000000
H    -0.706000000     2.756000000    -2.442000000
H    -0.847000000     1.799000000    -1.277000000
O     0.367000000    -2.296000000     1.338000000
H     0.165000000    -1.449000000     0.939000000
H    -0.362000000    -2.459000000     1.936000000
