158
-3047.55140
C    -0.533000000    -1.411000000     0.016000000
H    -0.784000000    -2.464000000     0.117000000
C    -0.191000000    -0.671000000     1.130000000
H    -0.167000000    -1.108000000     2.126000000
C     0.191000000     0.661000000     0.965000000
H     0.502000000     1.249000000     1.890000000
C     0.191000000     1.224000000    -0.308000000
H     0.520000000     2.260000000    -0.287000000
C     0.019000000     0.523000000    -1.447000000
H     0.264000000     0.913000000    -2.431000000
C    -0.437000000    -0.811000000    -1.284000000
C    -0.574000000    -1.734000000    -2.458000000
O    -1.597000000    -2.343000000    -2.550000000
O     0.244000000    -1.619000000    -3.372000000
O    -1.536000000    -0.185000000     4.235000000
H    -2.349000000    -0.646000000     4.441000000
H    -1.698000000     0.219000000     3.383000000
O    -2.015000000     5.286000000     0.756000000
H    -1.331000000     5.846000000     0.389000000
H    -2.429000000     4.881000000    -0.006000000
O     3.677000000     0.572000000     2.769000000
H     4.175000000     0.039000000     3.389000000
H     3.277000000    -0.063000000     2.175000000
O    -4.188000000    -0.621000000     1.973000000
H    -3.754000000    -0.260000000     1.200000000
H    -5.100000000    -0.734000000     1.705000000
O     2.908000000    -3.465000000     1.801000000
H     3.456000000    -3.381000000     2.582000000
H     2.809000000    -2.569000000     1.480000000
O    -1.883000000    -4.480000000    -5.102000000
H    -1.921000000    -3.690000000    -4.562000000
H    -1.100000000    -4.365000000    -5.640000000
O    -3.868000000    -1.612000000     4.542000000
H    -3.868000000    -2.471000000     4.120000000
H    -4.174000000    -1.011000000     3.863000000
O    -3.599000000     4.210000000    -1.209000000
H    -4.464000000     4.562000000    -1.420000000
H    -3.772000000     3.322000000    -0.896000000
O    -4.646000000     1.557000000     4.121000000
H    -3.899000000     1.977000000     3.693000000
H    -4.969000000     0.929000000     3.475000000
O    -0.044000000    -5.868000000    -1.427000000
H    -0.942000000    -5.567000000    -1.284000000
H     0.365000000    -5.167000000    -1.935000000
O    -1.769000000     1.620000000    -5.239000000
H    -1.794000000     1.443000000    -6.179000000
H    -2.490000000     1.104000000    -4.878000000
O    -3.277000000    -4.185000000     3.518000000
H    -2.482000000    -4.509000000     3.942000000
H    -3.081000000    -4.223000000     2.582000000
O     0.510000000     6.649000000    -0.063000000
H     1.334000000     6.551000000    -0.540000000
H    -0.008000000     7.249000000    -0.600000000
O    -1.554000000     5.617000000    -2.368000000
H    -1.156000000     4.915000000    -2.883000000
H    -2.246000000     5.185000000    -1.868000000
O     3.087000000    -1.516000000    -2.500000000
H     3.798000000    -1.364000000    -3.122000000
H     2.307000000    -1.612000000    -3.047000000
O    -1.870000000     3.518000000     5.628000000
H    -2.143000000     2.961000000     6.357000000
H    -2.094000000     3.015000000     4.845000000
O    -5.165000000    -3.699000000     0.232000000
H    -5.201000000    -2.858000000     0.687000000
H    -4.603000000    -3.537000000    -0.526000000
O    -4.264000000     1.479000000    -2.602000000
H    -4.232000000     2.012000000    -3.397000000
H    -4.040000000     0.596000000    -2.897000000
O     3.393000000    -4.205000000    -4.816000000
H     3.356000000    -4.496000000    -3.905000000
H     2.569000000    -3.737000000    -4.952000000
O     2.119000000     4.422000000    -4.774000000
H     2.494000000     4.849000000    -5.544000000
H     2.567000000     3.577000000    -4.725000000
O    -2.616000000     2.881000000     2.428000000
H    -2.553000000     2.515000000     1.546000000
H    -2.420000000     3.811000000     2.317000000
O    -6.073000000    -1.255000000     0.111000000
H    -6.967000000    -1.152000000    -0.215000000
H    -5.541000000    -1.357000000    -0.678000000
O     0.462000000    -5.955000000    -6.072000000
H     0.917000000    -5.129000000    -5.908000000
H     0.570000000    -6.453000000    -5.262000000
O     0.210000000    -0.064000000     6.620000000
H    -0.426000000    -0.068000000     7.336000000
H    -0.325000000    -0.047000000     5.826000000
O     3.021000000     3.129000000     2.056000000
H     3.116000000     2.206000000     2.291000000
H     2.962000000     3.128000000     1.100000000
O    -3.176000000     0.932000000    -0.155000000
H    -2.310000000     0.825000000    -0.548000000
H    -3.771000000     0.997000000    -0.902000000
O    -2.140000000    -4.469000000    -1.198000000
H    -1.918000000    -3.759000000    -1.800000000
H    -2.915000000    -4.877000000    -1.584000000
O     2.943000000     3.550000000    -1.059000000
H     3.673000000     3.852000000    -1.599000000
H     2.442000000     4.343000000    -0.868000000
O     6.241000000     1.880000000     2.416000000
H     6.567000000     2.328000000     1.636000000
H     5.303000000     1.776000000     2.258000000
O    -1.898000000    -5.024000000     1.403000000
H    -2.144000000    -5.949000000     1.427000000
H    -2.005000000    -4.772000000     0.486000000
O    -3.219000000    -0.745000000    -4.445000000
H    -3.504000000    -1.180000000    -5.248000000
H    -2.504000000    -1.290000000    -4.118000000
O     4.285000000     4.952000000     3.567000000
H     5.200000000     4.988000000     3.290000000
H     3.832000000     4.519000000     2.843000000
O     1.638000000    -0.073000000    -5.088000000
H     1.099000000    -0.060000000    -5.879000000
H     1.149000000    -0.622000000    -4.475000000
O     3.126000000    -5.848000000    -2.636000000
H     4.030000000    -5.747000000    -2.340000000
H     2.655000000    -5.126000000    -2.220000000
O     3.624000000     1.002000000    -1.524000000
H     2.892000000     0.639000000    -2.022000000
H     3.556000000     1.948000000    -1.652000000
O     1.663000000     5.519000000     4.479000000
H     2.501000000     5.309000000     4.066000000
H     1.298000000     6.218000000     3.937000000
O     0.779000000    -3.269000000    -5.173000000
H     0.532000000    -2.862000000    -4.343000000
H     0.519000000    -2.633000000    -5.839000000
O     2.156000000    -3.695000000    -1.132000000
H     2.368000000    -2.795000000    -1.378000000
H     1.788000000    -3.623000000    -0.251000000
O     2.802000000    -1.091000000     6.302000000
H     2.807000000    -1.600000000     7.113000000
H     1.907000000    -0.757000000     6.235000000
O     0.008000000    -1.697000000    -7.311000000
H    -0.895000000    -1.544000000    -7.591000000
H     0.543000000    -1.317000000    -8.007000000
O    -4.489000000    -3.489000000    -4.201000000
H    -4.328000000    -3.129000000    -5.073000000
H    -4.387000000    -4.435000000    -4.310000000
O    -0.658000000     3.576000000    -3.826000000
H     0.020000000     3.803000000    -4.462000000
H    -1.203000000     2.930000000    -4.276000000
O     1.573000000    -5.962000000     1.884000000
H     2.091000000    -5.164000000     1.986000000
H     0.677000000    -5.693000000     2.088000000
O     2.696000000    -0.870000000     0.459000000
H     2.902000000    -0.376000000    -0.334000000
H     1.849000000    -0.527000000     0.742000000
O     3.510000000     2.261000000    -5.372000000
H     4.304000000     2.029000000    -4.890000000
H     2.953000000     1.485000000    -5.303000000
O    -4.172000000    -1.998000000    -1.946000000
H    -3.258000000    -2.074000000    -2.221000000
H    -4.654000000    -2.547000000    -2.565000000
O    -3.084000000    -6.174000000    -3.231000000
H    -2.617000000    -5.601000000    -3.838000000
H    -2.763000000    -7.052000000    -3.433000000
O     0.880000000     3.079000000     5.751000000
H     1.245000000     3.498000000     4.971000000
H    -0.054000000     3.285000000     5.718000000
