158
-3051.66821
C    -0.692000000    -1.189000000    -0.552000000
H    -1.141000000    -2.150000000    -0.790000000
C    -0.128000000    -1.045000000     0.727000000
H    -0.112000000    -1.818000000     1.491000000
C     0.558000000     0.151000000     1.089000000
H     1.197000000     0.145000000     1.907000000
C     0.559000000     1.205000000     0.202000000
H     1.070000000     2.102000000     0.543000000
C    -0.060000000     1.060000000    -1.030000000
H    -0.047000000     1.918000000    -1.697000000
C    -0.743000000    -0.099000000    -1.382000000
C    -1.407000000    -0.134000000    -2.761000000
O    -1.991000000    -1.123000000    -3.187000000
O    -1.364000000     0.889000000    -3.468000000
O    -0.732000000     5.133000000     1.501000000
H    -0.189000000     5.169000000     2.289000000
H    -0.896000000     6.050000000     1.281000000
O     3.912000000     0.907000000     3.414000000
H     4.094000000     0.179000000     2.819000000
H     3.402000000     0.514000000     4.123000000
O    -5.280000000     1.999000000     0.784000000
H    -4.997000000     1.308000000     0.184000000
H    -4.497000000     2.210000000     1.292000000
O    -4.239000000    -2.167000000    -6.760000000
H    -4.734000000    -1.961000000    -7.553000000
H    -3.358000000    -2.368000000    -7.074000000
O     5.473000000     5.090000000     0.635000000
H     4.823000000     5.253000000    -0.048000000
H     5.281000000     4.204000000     0.943000000
O    -3.502000000    -1.720000000     1.341000000
H    -4.207000000    -2.039000000     1.905000000
H    -3.898000000    -1.660000000     0.472000000
O    -2.343000000     3.474000000    -0.290000000
H    -2.323000000     2.518000000    -0.263000000
H    -1.841000000     3.746000000     0.478000000
O     7.081000000     0.741000000     1.357000000
H     7.215000000    -0.201000000     1.466000000
H     6.187000000     0.819000000     1.023000000
O     1.239000000     4.754000000     3.421000000
H     1.891000000     5.041000000     4.061000000
H     0.899000000     3.933000000     3.777000000
O    -3.071000000    -5.222000000    -4.884000000
H    -3.426000000    -4.902000000    -4.054000000
H    -3.176000000    -4.487000000    -5.488000000
O    -1.437000000     0.738000000    -7.122000000
H    -0.539000000     0.921000000    -7.400000000
H    -1.980000000     1.049000000    -7.846000000
O     0.844000000     4.799000000    -4.204000000
H     0.073000000     4.253000000    -4.050000000
H     0.720000000     5.144000000    -5.088000000
O    -1.606000000     3.489000000    -3.242000000
H    -1.459000000     2.568000000    -3.457000000
H    -1.833000000     3.485000000    -2.312000000
O     2.752000000     0.007000000    -4.860000000
H     3.520000000     0.538000000    -4.647000000
H     2.051000000     0.645000000    -4.993000000
O     3.391000000     3.269000000    -4.789000000
H     3.490000000     3.954000000    -5.450000000
H     2.452000000     3.086000000    -4.772000000
O     4.835000000    -1.006000000     1.632000000
H     5.662000000    -1.487000000     1.654000000
H     4.450000000    -1.231000000     0.785000000
O    -4.916000000     1.317000000    -2.476000000
H    -5.729000000     1.797000000    -2.634000000
H    -4.594000000     1.095000000    -3.349000000
O     0.703000000     4.526000000    -0.943000000
H     0.373000000     4.925000000    -0.137000000
H    -0.076000000     4.409000000    -1.488000000
O    -7.262000000    -0.084000000    -4.871000000
H    -6.971000000     0.816000000    -5.019000000
H    -6.529000000    -0.501000000    -4.419000000
O    -5.535000000    -0.414000000    -0.457000000
H    -6.450000000    -0.136000000    -0.421000000
H    -5.144000000     0.135000000    -1.136000000
O     1.864000000     2.870000000     6.898000000
H     1.860000000     2.863000000     7.856000000
H     2.694000000     2.457000000     6.660000000
O    -1.977000000    -1.476000000     6.429000000
H    -1.924000000    -2.359000000     6.796000000
H    -2.309000000    -0.938000000     7.148000000
O     3.367000000     2.969000000     1.890000000
H     2.650000000     3.507000000     2.225000000
H     3.495000000     2.296000000     2.559000000
O    -2.458000000     0.880000000     1.247000000
H    -2.826000000     0.009000000     1.402000000
H    -1.531000000     0.720000000     1.070000000
O     2.406000000     0.027000000     5.371000000
H     3.123000000    -0.474000000     5.760000000
H     1.631000000    -0.517000000     5.510000000
O    -2.904000000    -4.018000000    -2.391000000
H    -2.551000000    -3.184000000    -2.700000000
H    -3.672000000    -3.776000000    -1.873000000
O    -3.019000000     4.992000000    -4.990000000
H    -3.265000000     4.272000000    -5.571000000
H    -2.252000000     4.668000000    -4.519000000
O     4.500000000    -3.234000000    -0.569000000
H     4.264000000    -2.402000000    -0.980000000
H     5.409000000    -3.381000000    -0.830000000
O     3.304000000     5.024000000    -1.285000000
H     3.675000000     4.325000000    -1.823000000
H     2.393000000     4.764000000    -1.147000000
O    -2.120000000    -6.412000000     0.886000000
H    -1.700000000    -6.950000000     0.215000000
H    -2.679000000    -5.810000000     0.395000000
O    -1.841000000    -2.750000000     3.324000000
H    -2.317000000    -2.398000000     2.572000000
H    -2.466000000    -3.337000000     3.749000000
O    -1.508000000    -1.684000000    -5.862000000
H    -1.653000000    -1.397000000    -4.961000000
H    -1.624000000    -0.892000000    -6.387000000
O    -0.155000000     3.734000000    -6.875000000
H     0.058000000     3.150000000    -7.603000000
H    -0.558000000     4.497000000    -7.289000000
O     4.654000000     1.582000000    -0.139000000
H     4.798000000     2.298000000    -0.758000000
H     4.017000000     1.929000000     0.485000000
O    -0.235000000    -5.299000000     2.542000000
H    -0.262000000    -4.343000000     2.514000000
H    -0.974000000    -5.576000000     2.001000000
O     0.114000000    -3.680000000    -6.799000000
H    -0.343000000    -2.936000000    -6.407000000
H     0.639000000    -4.042000000    -6.085000000
O     2.286000000    -2.337000000    -3.518000000
H     2.290000000    -1.978000000    -2.631000000
H     2.409000000    -1.576000000    -4.085000000
O     0.137000000    -1.786000000     4.845000000
H    -0.320000000    -2.279000000     4.164000000
H    -0.551000000    -1.539000000     5.464000000
O     1.667000000    -3.913000000     5.212000000
H     1.899000000    -4.067000000     4.297000000
H     1.350000000    -3.010000000     5.231000000
O    -5.486000000    -2.900000000    -1.627000000
H    -5.765000000    -2.176000000    -1.067000000
H    -5.096000000    -2.475000000    -2.391000000
O    -2.378000000    -4.207000000    -7.605000000
H    -2.022000000    -4.396000000    -8.473000000
H    -1.690000000    -3.704000000    -7.168000000
O    -3.450000000     1.592000000    -5.311000000
H    -2.658000000     1.433000000    -4.799000000
H    -3.242000000     1.258000000    -6.184000000
O     5.930000000     2.900000000     3.964000000
H     5.347000000     2.307000000     3.491000000
H     5.725000000     2.752000000     4.887000000
O     3.363000000    -0.681000000    -1.184000000
H     2.641000000    -0.135000000    -0.874000000
H     4.112000000    -0.086000000    -1.227000000
O     0.730000000     1.774000000    -4.814000000
H     0.002000000     1.376000000    -4.337000000
H     0.312000000     2.370000000    -5.435000000
O    -4.642000000    -1.293000000    -4.139000000
H    -3.723000000    -1.105000000    -3.948000000
H    -4.630000000    -1.684000000    -5.013000000
O     0.604000000     2.062000000     4.401000000
H     0.832000000     1.140000000     4.519000000
H     1.064000000     2.514000000     5.109000000
O    -1.798000000     2.347000000     5.898000000
H    -1.118000000     2.044000000     5.296000000
H    -2.205000000     3.086000000     5.446000000
