158
-3040.44450
C    -1.339000000    -0.581000000     0.022000000
H    -2.356000000    -0.921000000     0.203000000
C    -0.369000000    -0.762000000     0.963000000
H    -0.687000000    -1.282000000     1.863000000
C     0.872000000    -0.270000000     0.761000000
H     1.678000000    -0.475000000     1.454000000
C     1.066000000     0.666000000    -0.199000000
H     2.006000000     1.211000000    -0.221000000
C     0.124000000     0.917000000    -1.143000000
H     0.215000000     1.744000000    -1.842000000
C    -1.099000000     0.281000000    -1.077000000
C    -2.170000000     0.630000000    -2.055000000
O    -3.340000000     0.466000000    -1.712000000
O    -1.856000000     0.828000000    -3.216000000
O    -5.327000000     2.025000000     3.077000000
H    -4.996000000     1.821000000     2.202000000
H    -5.269000000     2.978000000     3.139000000
O     1.358000000    -2.553000000     5.258000000
H     1.885000000    -3.302000000     5.538000000
H     1.459000000    -1.913000000     5.963000000
O     1.317000000     4.894000000     2.039000000
H     1.073000000     4.007000000     2.305000000
H     0.561000000     5.211000000     1.544000000
O     4.585000000    -5.584000000     3.067000000
H     4.489000000    -5.578000000     4.019000000
H     4.450000000    -4.673000000     2.807000000
O     3.890000000    -3.248000000     1.880000000
H     2.981000000    -3.471000000     1.680000000
H     3.857000000    -2.332000000     2.155000000
O    -2.140000000    -0.636000000     5.733000000
H    -3.047000000    -0.717000000     6.026000000
H    -2.048000000    -1.303000000     5.052000000
O    -5.070000000    -0.890000000     3.829000000
H    -5.608000000    -0.666000000     4.589000000
H    -5.207000000    -0.167000000     3.218000000
O    -4.243000000     1.498000000     0.519000000
H    -4.010000000     1.050000000    -0.294000000
H    -3.407000000     1.632000000     0.966000000
O    -0.014000000     1.016000000     5.077000000
H    -0.814000000     0.697000000     5.496000000
H     0.694000000     0.575000000     5.544000000
O     3.368000000     3.677000000     0.404000000
H     3.062000000     4.289000000     1.074000000
H     2.735000000     3.765000000    -0.308000000
O    -0.220000000    -6.205000000     3.451000000
H     0.637000000    -6.396000000     3.832000000
H    -0.296000000    -5.252000000     3.499000000
O    -0.352000000    -3.560000000     3.439000000
H    -1.206000000    -3.155000000     3.593000000
H     0.190000000    -3.257000000     4.167000000
O    -0.467000000     4.743000000    -5.030000000
H     0.468000000     4.571000000    -4.920000000
H    -0.534000000     5.153000000    -5.893000000
O    -6.096000000    -1.356000000     0.416000000
H    -5.643000000    -1.812000000    -0.293000000
H    -6.417000000    -0.548000000     0.015000000
O     1.390000000    -2.081000000    -1.163000000
H     1.307000000    -2.379000000    -0.257000000
H     0.831000000    -1.305000000    -1.211000000
O     3.541000000    -5.670000000    -0.208000000
H     3.560000000    -4.872000000     0.319000000
H     3.372000000    -5.364000000    -1.100000000
O    -6.891000000    -2.409000000    -2.755000000
H    -6.561000000    -2.529000000    -3.646000000
H    -6.104000000    -2.363000000    -2.212000000
O    -0.368000000     5.560000000    -0.801000000
H     0.118000000     6.379000000    -0.707000000
H    -1.182000000     5.813000000    -1.237000000
O    -2.562000000    -3.975000000    -2.235000000
H    -1.977000000    -3.935000000    -1.478000000
H    -2.285000000    -3.246000000    -2.790000000
O     0.503000000    -0.779000000    -7.580000000
H     0.405000000    -0.315000000    -6.749000000
H    -0.357000000    -0.711000000    -7.995000000
O     4.317000000     2.312000000     5.455000000
H     4.125000000     3.182000000     5.105000000
H     5.273000000     2.261000000     5.461000000
O    -7.380000000     2.481000000    -0.462000000
H    -6.547000000     2.497000000    -0.933000000
H    -7.698000000     3.383000000    -0.507000000
O    -2.886000000    -2.506000000     4.001000000
H    -3.312000000    -3.352000000     3.868000000
H    -3.474000000    -1.873000000     3.589000000
O    -2.471000000     2.492000000     2.606000000
H    -2.429000000     2.813000000     3.507000000
H    -1.556000000     2.424000000     2.333000000
O     3.487000000    -0.798000000     3.234000000
H     3.362000000     0.007000000     3.737000000
H     3.316000000    -1.501000000     3.861000000
O     7.026000000    -2.917000000     2.641000000
H     6.899000000    -3.651000000     2.041000000
H     6.894000000    -2.139000000     2.099000000
O     0.656000000     2.212000000     2.770000000
H     0.588000000     1.839000000     3.648000000
H     0.818000000     1.460000000     2.201000000
O     0.225000000     0.854000000    -5.217000000
H    -0.673000000     1.091000000    -4.985000000
H     0.657000000     0.700000000    -4.376000000
O     6.145000000     1.328000000    -1.803000000
H     6.949000000     1.818000000    -1.629000000
H     5.854000000     1.644000000    -2.659000000
O     6.344000000    -1.103000000    -0.395000000
H     5.497000000    -1.016000000     0.043000000
H     6.445000000    -0.285000000    -0.883000000
O     5.613000000     2.027000000     0.770000000
H     4.700000000     2.300000000     0.857000000
H     5.744000000     1.925000000    -0.173000000
O    -1.037000000    -1.656000000    -3.659000000
H    -0.117000000    -1.766000000    -3.420000000
H    -1.197000000    -0.716000000    -3.570000000
O    -0.963000000    -4.211000000    -0.143000000
H    -1.451000000    -4.676000000     0.536000000
H    -0.532000000    -4.902000000    -0.646000000
O    -2.510000000     3.317000000    -3.940000000
H    -1.706000000     3.411000000    -4.451000000
H    -2.498000000     2.409000000    -3.638000000
O     2.401000000    -0.176000000     6.281000000
H     3.171000000     0.389000000     6.221000000
H     2.439000000    -0.540000000     7.166000000
O     3.800000000    -1.038000000    -2.189000000
H     3.432000000    -0.232000000    -2.552000000
H     3.115000000    -1.375000000    -1.611000000
O     1.854000000     3.752000000    -1.758000000
H     2.341000000     4.057000000    -2.524000000
H     1.095000000     4.333000000    -1.711000000
O    -3.085000000    -2.612000000    -6.146000000
H    -2.286000000    -2.557000000    -5.622000000
H    -2.780000000    -2.587000000    -7.052000000
O     1.220000000    -3.620000000     1.284000000
H     0.661000000    -3.858000000     0.545000000
H     0.610000000    -3.462000000     2.005000000
O    -5.328000000     2.123000000    -2.423000000
H    -5.456000000     1.832000000    -3.326000000
H    -4.664000000     1.530000000    -2.072000000
O    -4.429000000    -2.215000000    -1.599000000
H    -3.996000000    -1.364000000    -1.667000000
H    -3.753000000    -2.847000000    -1.844000000
O    -4.421000000     0.233000000    -4.576000000
H    -3.753000000    -0.123000000    -3.989000000
H    -4.074000000     0.079000000    -5.455000000
O     2.525000000     1.185000000    -3.162000000
H     3.180000000     1.671000000    -3.662000000
H     2.313000000     1.758000000    -2.425000000
O    -3.146000000     5.309000000    -2.176000000
H    -3.144000000     4.559000000    -2.771000000
H    -3.415000000     4.945000000    -1.332000000
O     5.145000000    -2.494000000     4.963000000
H     5.462000000    -3.232000000     5.483000000
H     5.709000000    -2.485000000     4.190000000
O    -4.239000000     4.296000000     0.240000000
H    -4.804000000     4.728000000     0.881000000
H    -4.583000000     3.405000000     0.179000000
O     0.578000000     2.756000000    -7.325000000
H    -0.272000000     3.033000000    -7.667000000
H     0.370000000     2.061000000    -6.700000000
O     6.236000000    -0.217000000     2.410000000
H     6.007000000     0.475000000     1.790000000
H     5.405000000    -0.652000000     2.600000000
