158
-3041.52762
C    -0.924000000    -1.064000000     0.471000000
H    -1.624000000    -1.806000000     0.847000000
C    -0.167000000    -0.274000000     1.311000000
H    -0.253000000    -0.406000000     2.387000000
C     0.674000000     0.691000000     0.786000000
H     1.367000000     1.301000000     1.342000000
C     0.714000000     0.892000000    -0.602000000
H     1.346000000     1.676000000    -1.011000000
C    -0.032000000     0.097000000    -1.452000000
H     0.040000000     0.211000000    -2.531000000
C    -0.901000000    -0.841000000    -0.921000000
C    -1.709000000    -1.720000000    -1.920000000
O    -1.975000000    -2.824000000    -1.519000000
O    -1.677000000    -1.413000000    -3.130000000
O    -3.148000000    -1.120000000     3.418000000
H    -3.034000000    -0.724000000     4.282000000
H    -2.595000000    -1.901000000     3.438000000
O     2.149000000     1.647000000     4.280000000
H     1.557000000     1.017000000     4.691000000
H     1.632000000     2.449000000     4.207000000
O    -4.903000000    -0.781000000    -1.184000000
H    -4.358000000    -0.441000000    -1.894000000
H    -4.580000000    -0.336000000    -0.401000000
O    -3.102000000    -0.052000000    -5.141000000
H    -3.981000000    -0.417000000    -5.237000000
H    -2.644000000    -0.677000000    -4.578000000
O    -1.709000000     2.526000000     1.470000000
H    -1.246000000     3.351000000     1.322000000
H    -1.168000000     1.868000000     1.034000000
O     0.177000000     4.545000000     0.884000000
H    -0.184000000     4.536000000    -0.002000000
H     0.209000000     5.472000000     1.121000000
O     1.734000000    -0.138000000     7.077000000
H     0.927000000    -0.506000000     6.716000000
H     1.466000000     0.700000000     7.455000000
O    -2.530000000    -1.370000000    -7.552000000
H    -2.466000000    -0.913000000    -6.714000000
H    -3.247000000    -0.931000000    -8.010000000
O     0.995000000    -3.500000000    -5.564000000
H     1.512000000    -3.570000000    -6.367000000
H     1.381000000    -4.149000000    -4.975000000
O     0.840000000    -4.699000000    -2.189000000
H    -0.020000000    -4.369000000    -1.927000000
H     0.998000000    -5.442000000    -1.606000000
O    -2.914000000    -7.372000000     0.907000000
H    -3.201000000    -6.597000000     0.424000000
H    -2.645000000    -7.036000000     1.762000000
O    -0.065000000    -0.968000000    -5.146000000
H    -0.547000000    -1.250000000    -4.369000000
H     0.345000000    -1.767000000    -5.477000000
O    -1.978000000    -4.758000000     0.238000000
H    -1.192000000    -5.287000000     0.101000000
H    -1.925000000    -4.073000000    -0.429000000
O    -3.796000000     0.087000000     1.038000000
H    -3.452000000     0.977000000     0.960000000
H    -3.402000000    -0.253000000     1.841000000
O     3.146000000    -0.967000000    -0.742000000
H     2.332000000    -1.149000000    -0.272000000
H     3.322000000    -0.042000000    -0.566000000
O    -3.260000000     1.920000000     4.280000000
H    -2.551000000     1.867000000     3.639000000
H    -3.114000000     1.172000000     4.860000000
O    -6.693000000    -2.696000000    -0.311000000
H    -6.761000000    -1.922000000     0.249000000
H    -5.967000000    -2.500000000    -0.903000000
O    -3.426000000    -3.816000000    -6.948000000
H    -3.409000000    -2.899000000    -7.223000000
H    -2.798000000    -3.862000000    -6.227000000
O    -4.730000000    -4.095000000     0.947000000
H    -5.464000000    -3.667000000     0.505000000
H    -3.982000000    -3.941000000     0.371000000
O    -4.013000000    -6.154000000    -1.554000000
H    -4.673000000    -6.278000000    -2.237000000
H    -3.911000000    -5.205000000    -1.489000000
O     4.521000000    -2.454000000     1.933000000
H     4.296000000    -1.540000000     2.107000000
H     5.079000000    -2.707000000     2.668000000
O    -0.696000000     4.235000000    -1.597000000
H    -1.435000000     4.693000000    -2.000000000
H    -0.251000000     3.808000000    -2.329000000
O     4.224000000     3.076000000     5.195000000
H     5.029000000     3.348000000     4.754000000
H     3.640000000     2.812000000     4.484000000
O     3.989000000     2.076000000    -4.828000000
H     3.432000000     1.372000000    -4.497000000
H     4.321000000     2.509000000    -4.041000000
O    -1.840000000     2.173000000    -4.254000000
H    -2.103000000     1.334000000    -4.632000000
H    -2.390000000     2.818000000    -4.698000000
O     6.139000000    -0.935000000     4.540000000
H     5.302000000    -0.681000000     4.150000000
H     5.943000000    -1.060000000     5.469000000
O    -3.404000000     1.869000000    -1.486000000
H    -2.723000000     1.851000000    -2.158000000
H    -3.196000000     2.639000000    -0.956000000
O    -1.294000000     3.796000000     6.620000000
H    -1.433000000     4.734000000     6.489000000
H    -1.056000000     3.465000000     5.754000000
O    -4.486000000    -3.626000000    -2.075000000
H    -3.610000000    -3.306000000    -1.856000000
H    -4.743000000    -3.115000000    -2.842000000
O     1.765000000     2.597000000    -6.640000000
H     1.337000000     1.748000000    -6.526000000
H     2.513000000     2.570000000    -6.044000000
O     3.284000000     4.171000000     0.238000000
H     3.516000000     4.781000000    -0.463000000
H     2.327000000     4.135000000     0.215000000
O    -3.493000000    -4.657000000     3.374000000
H    -2.605000000    -4.324000000     3.245000000
H    -3.948000000    -4.447000000     2.559000000
O     0.467000000    -5.979000000     0.565000000
H     0.110000000    -6.475000000     1.302000000
H     1.299000000    -5.635000000     0.888000000
O     2.450000000     5.286000000    -2.423000000
H     3.275000000     5.122000000    -2.879000000
H     1.888000000     4.552000000    -2.673000000
O     0.039000000    -1.486000000     5.570000000
H     0.203000000    -2.236000000     6.142000000
H    -0.869000000    -1.242000000     5.749000000
O     2.458000000    -2.593000000    -2.814000000
H     3.002000000    -2.406000000    -2.049000000
H     1.858000000    -3.278000000    -2.520000000
O     2.149000000     0.317000000    -3.924000000
H     2.284000000    -0.560000000    -3.565000000
H     1.494000000     0.196000000    -4.612000000
O     4.744000000    -0.805000000    -3.041000000
H     5.244000000     0.005000000    -2.939000000
H     4.123000000    -0.796000000    -2.313000000
O     4.359000000     1.661000000     0.403000000
H     4.020000000     2.556000000     0.389000000
H     5.088000000     1.671000000    -0.217000000
O     0.658000000     2.906000000    -3.515000000
H    -0.218000000     2.751000000    -3.868000000
H     0.994000000     2.033000000    -3.315000000
O     1.625000000    -4.326000000     3.519000000
H     2.065000000    -3.627000000     4.002000000
H     1.708000000    -5.096000000     4.082000000
O     0.154000000     0.611000000    -7.163000000
H    -0.024000000     0.158000000    -6.339000000
H     0.454000000    -0.078000000    -7.755000000
O    -5.553000000    -1.322000000    -5.400000000
H    -5.715000000    -2.204000000    -5.065000000
H    -6.425000000    -0.956000000    -5.545000000
O    -2.650000000    -6.922000000    -4.444000000
H    -1.909000000    -7.194000000    -4.985000000
H    -2.449000000    -6.018000000    -4.200000000
O     4.220000000     0.345000000     2.734000000
H     4.303000000     0.875000000     1.941000000
H     3.502000000     0.753000000     3.220000000
O    -1.026000000    -3.781000000     2.968000000
H    -0.244000000    -3.968000000     3.488000000
H    -0.808000000    -4.088000000     2.088000000
O    -1.779000000    -4.479000000    -3.684000000
H    -1.858000000    -3.871000000    -2.948000000
H    -0.928000000    -4.277000000    -4.072000000
O     0.712000000     4.140000000     3.637000000
H     1.178000000     4.890000000     4.007000000
H     0.685000000     4.315000000     2.697000000
