158
-3018.47530
C    -0.767000000    -1.023000000     0.758000000
H    -1.283000000    -1.658000000     1.474000000
C    -0.065000000     0.011000000     1.265000000
H    -0.069000000     0.167000000     2.341000000
C     0.547000000     0.948000000     0.428000000
H     1.152000000     1.859000000     0.764000000
C     0.608000000     0.763000000    -0.919000000
H     1.157000000     1.472000000    -1.533000000
C    -0.004000000    -0.354000000    -1.431000000
H     0.052000000    -0.500000000    -2.506000000
C    -0.735000000    -1.198000000    -0.630000000
C    -1.507000000    -2.310000000    -1.244000000
O    -2.347000000    -2.949000000    -0.606000000
O    -1.226000000    -2.571000000    -2.394000000
O    -3.487000000     4.273000000    -0.365000000
H    -2.797000000     3.629000000    -0.523000000
H    -3.034000000     5.116000000    -0.366000000
O     0.797000000     3.173000000     5.394000000
H     0.162000000     3.317000000     4.692000000
H     0.353000000     3.478000000     6.185000000
O    -5.114000000    -1.166000000    -4.719000000
H    -4.260000000    -1.426000000    -5.066000000
H    -5.387000000    -1.906000000    -4.177000000
O    -1.563000000    -2.354000000     6.353000000
H    -2.375000000    -2.244000000     5.857000000
H    -1.543000000    -3.285000000     6.575000000
O    -4.210000000     1.828000000     2.147000000
H    -4.081000000     2.716000000     2.481000000
H    -3.762000000     1.823000000     1.301000000
O    -1.809000000     2.266000000    -2.502000000
H    -1.248000000     2.838000000    -3.026000000
H    -2.541000000     2.052000000    -3.082000000
O    -3.905000000    -1.914000000     5.023000000
H    -4.063000000    -2.179000000     4.117000000
H    -4.678000000    -2.217000000     5.499000000
O    -0.312000000     3.939000000    -4.003000000
H    -0.532000000     3.788000000    -4.922000000
H    -0.210000000     4.888000000    -3.934000000
O    -5.295000000    -5.875000000     0.044000000
H    -4.356000000    -5.976000000    -0.108000000
H    -5.500000000    -5.003000000    -0.294000000
O    -3.210000000    -2.255000000    -6.525000000
H    -3.676000000    -2.544000000    -7.310000000
H    -2.663000000    -3.002000000    -6.282000000
O    -2.665000000    -6.133000000    -0.539000000
H    -1.777000000    -6.394000000    -0.296000000
H    -2.600000000    -5.195000000    -0.715000000
O     2.742000000    -0.729000000     5.290000000
H     3.387000000    -1.047000000     5.922000000
H     2.344000000     0.030000000     5.716000000
O     0.116000000    -4.764000000    -3.366000000
H    -0.294000000    -3.992000000    -2.975000000
H     1.013000000    -4.754000000    -3.033000000
O    -5.070000000    -2.314000000    -0.276000000
H    -5.349000000    -1.688000000     0.393000000
H    -4.141000000    -2.123000000    -0.408000000
O     2.470000000    -2.205000000     1.244000000
H     2.003000000    -1.434000000     1.565000000
H     1.787000000    -2.862000000     1.114000000
O    -2.325000000    -0.613000000    -3.500000000
H    -1.912000000     0.040000000    -2.934000000
H    -2.031000000    -1.454000000    -3.150000000
O     2.496000000     3.693000000     2.980000000
H     2.272000000     3.658000000     3.910000000
H     2.716000000     2.790000000     2.752000000
O     0.348000000    -2.851000000    -6.175000000
H    -0.563000000    -2.568000000    -6.260000000
H     0.852000000    -2.175000000    -6.627000000
O     0.309000000     1.101000000    -6.710000000
H    -0.482000000     0.641000000    -6.430000000
H    -0.010000000     1.799000000    -7.283000000
O    -4.445000000    -3.193000000     2.523000000
H    -4.910000000    -2.380000000     2.324000000
H    -5.115000000    -3.874000000     2.459000000
O     3.859000000     3.445000000     5.982000000
H     2.974000000     3.114000000     5.832000000
H     3.888000000     4.276000000     5.508000000
O     0.858000000    -2.142000000     3.977000000
H     1.794000000    -2.104000000     4.174000000
H     0.507000000    -1.322000000     4.326000000
O     5.285000000     0.790000000     1.290000000
H     6.046000000     1.078000000     0.785000000
H     4.532000000     1.079000000     0.775000000
O    -1.419000000     2.357000000     3.470000000
H    -2.181000000     2.830000000     3.135000000
H    -0.791000000     2.374000000     2.747000000
O    -3.278000000     4.426000000     2.839000000
H    -2.771000000     5.130000000     3.244000000
H    -3.836000000     4.870000000     2.201000000
O    -2.660000000     1.710000000     0.011000000
H    -2.476000000     1.956000000    -0.896000000
H    -1.843000000     1.323000000     0.324000000
O    -3.693000000     1.043000000     5.179000000
H    -3.981000000     0.144000000     5.018000000
H    -3.197000000     1.279000000     4.396000000
O     3.839000000    -2.173000000    -2.508000000
H     4.169000000    -2.238000000    -1.612000000
H     3.657000000    -1.241000000    -2.630000000
O    -5.593000000    -0.821000000     2.075000000
H    -5.213000000     0.058000000     2.077000000
H    -6.473000000    -0.702000000     2.431000000
O     1.222000000     6.410000000    -0.489000000
H     0.476000000     5.904000000    -0.167000000
H     0.865000000     7.282000000    -0.657000000
O     2.238000000     2.742000000    -3.648000000
H     1.297000000     2.907000000    -3.588000000
H     2.551000000     3.371000000    -4.297000000
O    -1.499000000     7.008000000     2.466000000
H    -0.642000000     6.760000000     2.814000000
H    -2.032000000     7.179000000     3.243000000
O    -1.901000000    -4.515000000    -6.110000000
H    -1.027000000    -4.536000000    -5.719000000
H    -1.762000000    -4.778000000    -7.020000000
O    -2.079000000    -4.213000000     1.641000000
H    -2.310000000    -3.911000000     0.762000000
H    -2.814000000    -3.937000000     2.189000000
O     0.599000000    -6.951000000    -4.767000000
H     0.356000000    -6.157000000    -4.291000000
H     1.277000000    -6.665000000    -5.379000000
O     3.640000000     0.409000000    -3.081000000
H     4.447000000     0.923000000    -3.098000000
H     2.942000000     1.061000000    -3.018000000
O     0.508000000    -4.282000000     2.038000000
H     0.505000000    -3.595000000     2.704000000
H    -0.417000000    -4.452000000     1.865000000
O     3.958000000     5.907000000    -0.764000000
H     3.013000000     5.811000000    -0.883000000
H     4.059000000     6.157000000     0.154000000
O     2.563000000    -4.857000000    -2.086000000
H     3.052000000    -4.067000000    -2.319000000
H     3.014000000    -5.198000000    -1.313000000
O    -2.034000000     0.212000000    -5.963000000
H    -2.117000000     0.202000000    -5.009000000
H    -2.328000000    -0.656000000    -6.238000000
O     0.113000000    -6.221000000     0.201000000
H     0.366000000    -5.581000000     0.866000000
H     0.320000000    -5.795000000    -0.632000000
O     5.561000000     0.290000000     3.959000000
H     5.634000000     0.627000000     3.066000000
H     5.972000000     0.962000000     4.503000000
O     5.176000000     4.145000000     1.990000000
H     5.375000000     3.499000000     1.312000000
H     4.257000000     3.989000000     2.208000000
O     2.881000000     1.076000000     2.871000000
H     2.931000000     0.410000000     3.556000000
H     3.581000000     0.844000000     2.260000000
O     3.687000000     2.056000000    -0.589000000
H     3.431000000     1.390000000    -1.226000000
H     3.784000000     2.856000000    -1.104000000
O     1.010000000     6.336000000     3.283000000
H     1.552000000     5.710000000     2.803000000
H     1.253000000     6.211000000     4.200000000
O    -3.319000000    -4.526000000    -3.269000000
H    -3.089000000    -3.893000000    -2.588000000
H    -2.981000000    -4.141000000    -4.077000000
O    -0.359000000    -0.107000000     5.337000000
H    -0.750000000    -0.904000000     5.695000000
H    -1.098000000     0.378000000     4.970000000
