158
-3045.55839
C    -0.361000000    -0.321000000     1.418000000
H    -0.459000000    -0.386000000     2.499000000
C    -0.269000000     0.958000000     0.848000000
H    -0.351000000     1.788000000     1.546000000
C     0.129000000     1.160000000    -0.466000000
H     0.271000000     2.170000000    -0.931000000
C     0.135000000     0.025000000    -1.310000000
H     0.260000000     0.135000000    -2.385000000
C     0.013000000    -1.251000000    -0.783000000
H    -0.010000000    -2.071000000    -1.497000000
C    -0.162000000    -1.472000000     0.570000000
C    -0.150000000    -2.871000000     1.179000000
O     0.099000000    -3.790000000     0.413000000
O    -0.425000000    -3.132000000     2.353000000
O    -2.512000000     5.356000000    -3.890000000
H    -1.852000000     5.883000000    -4.341000000
H    -3.261000000     5.349000000    -4.487000000
O     1.647000000    -4.357000000     5.363000000
H     1.454000000    -4.620000000     4.463000000
H     1.878000000    -3.430000000     5.297000000
O     3.238000000     1.479000000     3.701000000
H     3.167000000     2.425000000     3.830000000
H     2.921000000     1.334000000     2.810000000
O    -0.409000000     3.697000000     4.196000000
H    -0.114000000     4.548000000     3.872000000
H     0.292000000     3.407000000     4.780000000
O    -2.820000000    -3.469000000     3.539000000
H    -3.047000000    -3.947000000     2.741000000
H    -1.873000000    -3.338000000     3.477000000
O     4.021000000     5.500000000    -1.962000000
H     3.854000000     6.137000000    -2.656000000
H     4.931000000     5.234000000    -2.095000000
O     5.825000000     2.916000000    -3.032000000
H     6.075000000     2.533000000    -3.874000000
H     5.292000000     2.242000000    -2.611000000
O    -3.814000000    -2.410000000     5.919000000
H    -4.718000000    -2.354000000     5.610000000
H    -3.303000000    -2.608000000     5.134000000
O    -2.157000000    -3.823000000    -3.921000000
H    -1.469000000    -4.020000000    -3.287000000
H    -2.765000000    -4.559000000    -3.852000000
O     0.551000000    -2.522000000    -5.582000000
H    -0.008000000    -2.560000000    -6.358000000
H     0.923000000    -1.640000000    -5.599000000
O    -0.750000000    -5.130000000     7.110000000
H    -0.420000000    -4.316000000     6.731000000
H    -0.010000000    -5.735000000     7.062000000
O    -0.374000000    -6.736000000     1.978000000
H     0.325000000    -6.206000000     2.361000000
H    -0.137000000    -7.638000000     2.195000000
O    -2.886000000     3.281000000     3.052000000
H    -3.054000000     2.375000000     2.794000000
H    -1.990000000     3.272000000     3.388000000
O    -1.841000000     1.805000000    -4.805000000
H    -2.096000000     1.843000000    -3.884000000
H    -2.128000000     2.642000000    -5.168000000
O    -2.877000000    -4.436000000     0.912000000
H    -1.954000000    -4.184000000     0.890000000
H    -2.886000000    -5.277000000     1.370000000
O     2.840000000    -0.665000000    -4.563000000
H     3.171000000    -0.165000000    -3.818000000
H     1.967000000    -0.306000000    -4.724000000
O     0.209000000    -8.501000000    -1.872000000
H     0.978000000    -7.959000000    -2.045000000
H    -0.309000000    -7.991000000    -1.250000000
O     1.934000000    -4.694000000    -4.388000000
H     1.465000000    -5.198000000    -5.053000000
H     1.454000000    -3.867000000    -4.331000000
O    -4.494000000    -1.677000000     0.782000000
H    -3.995000000    -2.443000000     1.066000000
H    -5.251000000    -2.042000000     0.323000000
O     3.633000000    -6.535000000    -0.332000000
H     3.843000000    -7.381000000     0.063000000
H     3.302000000    -6.753000000    -1.203000000
O    -0.085000000     5.447000000     0.552000000
H     0.465000000     4.797000000     0.114000000
H    -0.937000000     5.019000000     0.639000000
O     1.279000000     2.383000000     6.014000000
H     0.705000000     1.832000000     6.546000000
H     1.858000000     1.766000000     5.567000000
O    -4.264000000     0.633000000     2.780000000
H    -4.991000000     0.377000000     3.349000000
H    -4.242000000    -0.043000000     2.103000000
O     4.729000000    -1.247000000    -0.556000000
H     5.281000000    -1.768000000    -1.140000000
H     4.037000000    -1.848000000    -0.281000000
O     3.015000000    -1.204000000     5.754000000
H     3.793000000    -0.987000000     5.239000000
H     2.340000000    -1.388000000     5.100000000
O     4.317000000     0.494000000    -2.600000000
H     5.035000000     0.071000000    -3.070000000
H     4.264000000     0.022000000    -1.769000000
O    -3.317000000     3.519000000    -1.938000000
H    -2.827000000     3.710000000    -1.138000000
H    -2.991000000     4.154000000    -2.575000000
O     1.774000000    -4.919000000     2.406000000
H     2.279000000    -5.235000000     1.656000000
H     1.214000000    -4.232000000     2.045000000
O    -1.126000000    -5.060000000    -1.824000000
H    -0.776000000    -4.700000000    -1.009000000
H    -1.408000000    -5.945000000    -1.593000000
O    -4.905000000     1.446000000    -2.492000000
H    -4.409000000     0.784000000    -2.011000000
H    -4.416000000     2.258000000    -2.357000000
O     1.268000000    -1.874000000     4.092000000
H     0.495000000    -2.351000000     3.789000000
H     1.573000000    -1.397000000     3.321000000
O     2.488000000    -2.996000000    -0.631000000
H     1.621000000    -3.293000000    -0.354000000
H     2.907000000    -3.780000000    -0.985000000
O    -2.466000000     4.444000000     0.580000000
H    -3.057000000     5.196000000     0.616000000
H    -2.575000000     4.014000000     1.428000000
O     2.751000000     1.084000000     1.019000000
H     3.101000000     0.235000000     1.291000000
H     2.054000000     0.867000000     0.399000000
O    -1.775000000    -7.350000000    -0.402000000
H    -2.520000000    -7.890000000    -0.138000000
H    -1.467000000    -6.952000000     0.412000000
O     5.095000000     2.557000000     0.913000000
H     4.176000000     2.308000000     1.010000000
H     5.584000000     1.782000000     1.193000000
O    -2.848000000    -6.730000000     2.490000000
H    -1.895000000    -6.787000000     2.560000000
H    -3.111000000    -7.570000000     2.114000000
O     2.541000000     3.939000000     2.146000000
H     2.450000000     3.798000000     1.204000000
H     1.889000000     4.610000000     2.352000000
O     0.557000000     0.385000000    -5.571000000
H    -0.240000000     0.862000000    -5.340000000
H     0.631000000     0.488000000    -6.520000000
O     2.001000000     2.549000000    -3.079000000
H     1.664000000     2.564000000    -3.974000000
H     2.898000000     2.226000000    -3.166000000
O     0.593000000     5.851000000     3.209000000
H     1.005000000     6.486000000     3.795000000
H     0.428000000     6.340000000     2.403000000
O     0.705000000     6.007000000    -2.551000000
H    -0.158000000     5.619000000    -2.408000000
H     1.302000000     5.456000000    -2.045000000
O     3.472000000    -6.616000000     3.676000000
H     3.475000000    -7.564000000     3.547000000
H     2.565000000    -6.355000000     3.519000000
O     2.060000000     4.114000000    -0.743000000
H     2.019000000     3.499000000    -1.475000000
H     2.803000000     4.682000000    -0.947000000
O     2.669000000    -1.644000000     1.741000000
H     3.383000000    -2.218000000     2.020000000
H     2.515000000    -1.880000000     0.827000000
O    -3.228000000    -0.135000000    -1.220000000
H    -2.345000000     0.024000000    -0.888000000
H    -3.711000000    -0.470000000    -0.464000000
O     0.688000000     8.041000000     1.160000000
H     1.645000000     8.044000000     1.157000000
H     0.450000000     7.257000000     0.664000000
O    -3.698000000    -1.484000000    -4.071000000
H    -3.281000000    -2.323000000    -3.874000000
H    -3.591000000    -0.970000000    -3.270000000
