158
-3014.25263
C    -0.952000000    -0.251000000     1.162000000
H    -1.595000000    -0.333000000     2.035000000
C    -0.686000000     1.042000000     0.656000000
H    -1.268000000     1.872000000     1.047000000
C     0.214000000     1.146000000    -0.381000000
H     0.438000000     2.124000000    -0.876000000
C     0.910000000     0.030000000    -0.919000000
H     1.610000000     0.216000000    -1.729000000
C     0.572000000    -1.235000000    -0.442000000
H     1.097000000    -2.095000000    -0.849000000
C    -0.369000000    -1.408000000     0.636000000
C    -0.662000000    -2.818000000     1.064000000
O    -1.254000000    -2.934000000     2.105000000
O    -0.386000000    -3.795000000     0.401000000
O     1.842000000     4.005000000     2.644000000
H     1.931000000     4.957000000     2.597000000
H     1.135000000     3.800000000     2.031000000
O     4.097000000     6.413000000    -2.730000000
H     3.512000000     5.672000000    -2.890000000
H     4.491000000     6.228000000    -1.878000000
O    -4.661000000    -1.660000000    -2.109000000
H    -4.021000000    -1.027000000    -1.784000000
H    -4.310000000    -2.511000000    -1.846000000
O     0.309000000    -1.918000000    -3.737000000
H     0.080000000    -1.006000000    -3.918000000
H     1.253000000    -1.901000000    -3.580000000
O    -2.199000000    -2.524000000     7.173000000
H    -1.878000000    -2.046000000     6.407000000
H    -3.152000000    -2.452000000     7.118000000
O    -2.638000000     3.875000000    -0.653000000
H    -3.289000000     4.516000000    -0.940000000
H    -2.547000000     3.278000000    -1.395000000
O     3.107000000    -1.819000000    -4.429000000
H     3.381000000    -2.685000000    -4.733000000
H     2.754000000    -1.392000000    -5.210000000
O    -1.315000000    -5.646000000     5.412000000
H    -0.509000000    -5.206000000     5.144000000
H    -1.967000000    -5.366000000     4.769000000
O    -4.036000000    -2.054000000     1.911000000
H    -3.191000000    -2.343000000     2.255000000
H    -4.383000000    -2.820000000     1.455000000
O     4.323000000     3.347000000     1.454000000
H     3.502000000     3.425000000     1.940000000
H     4.076000000     3.495000000     0.542000000
O    -2.804000000     0.358000000    -1.355000000
H    -2.674000000     0.799000000    -2.195000000
H    -1.978000000     0.484000000    -0.888000000
O     2.087000000     0.634000000     1.996000000
H     1.297000000     0.685000000     1.458000000
H     2.774000000     0.358000000     1.388000000
O    -2.397000000    -2.976000000    -4.379000000
H    -2.970000000    -3.223000000    -3.652000000
H    -1.606000000    -2.640000000    -3.956000000
O    -4.770000000    -4.466000000     1.194000000
H    -4.213000000    -5.045000000     1.715000000
H    -4.497000000    -4.622000000     0.290000000
O    -1.651000000     0.146000000    -5.094000000
H    -1.362000000     0.298000000    -5.994000000
H    -2.539000000    -0.202000000    -5.183000000
O    -4.182000000     0.725000000     0.922000000
H    -3.776000000     0.672000000     0.057000000
H    -3.887000000    -0.064000000     1.375000000
O    -0.415000000    -6.433000000     0.840000000
H     0.500000000    -6.610000000     0.622000000
H    -0.476000000    -5.478000000     0.865000000
O     2.934000000    -6.961000000    -1.986000000
H     3.319000000    -6.195000000    -2.412000000
H     2.674000000    -6.647000000    -1.120000000
O    -2.377000000     4.366000000     3.578000000
H    -3.028000000     3.672000000     3.476000000
H    -2.126000000     4.325000000     4.501000000
O     4.636000000    -0.123000000    -2.504000000
H     4.537000000     0.167000000    -3.411000000
H     4.458000000    -1.063000000    -2.533000000
O    -6.655000000    -0.599000000     0.972000000
H    -7.099000000     0.232000000     0.806000000
H    -5.737000000    -0.360000000     1.097000000
O     0.373000000    -4.222000000     3.699000000
H    -0.089000000    -3.757000000     3.001000000
H     1.173000000    -3.714000000     3.836000000
O    -4.462000000     3.290000000     1.708000000
H    -4.342000000     2.344000000     1.621000000
H    -3.792000000     3.670000000     1.140000000
O    -2.206000000     2.312000000    -3.360000000
H    -2.399000000     3.112000000    -3.849000000
H    -2.075000000     1.645000000    -4.034000000
O    -1.157000000    -1.367000000     5.101000000
H    -0.376000000    -0.862000000     4.876000000
H    -1.063000000    -2.184000000     4.611000000
O     1.706000000     4.183000000    -3.259000000
H     1.197000000     4.802000000    -3.782000000
H     1.651000000     3.359000000    -3.742000000
O    -2.525000000    -5.095000000     3.015000000
H    -2.032000000    -4.357000000     2.657000000
H    -1.949000000    -5.849000000     2.894000000
O     2.408000000    -6.118000000     0.448000000
H     3.309000000    -6.412000000     0.582000000
H     2.429000000    -5.183000000     0.651000000
O     3.411000000     3.037000000    -1.151000000
H     3.401000000     2.102000000    -1.356000000
H     2.780000000     3.422000000    -1.760000000
O     1.325000000     1.653000000    -4.267000000
H     1.791000000     1.046000000    -4.842000000
H     0.400000000     1.518000000    -4.474000000
O     2.299000000    -2.273000000     2.781000000
H     3.249000000    -2.248000000     2.670000000
H     1.993000000    -1.442000000     2.417000000
O    -5.729000000     2.525000000     4.338000000
H    -5.736000000     1.695000000     4.814000000
H    -4.866000000     2.556000000     3.924000000
O    -3.044000000    -3.503000000    -1.174000000
H    -2.220000000    -3.414000000    -0.695000000
H    -3.256000000    -4.434000000    -1.114000000
O    -2.211000000    -7.753000000    -0.700000000
H    -1.650000000    -7.223000000    -0.134000000
H    -3.054000000    -7.778000000    -0.247000000
O    -0.997000000     4.564000000     1.234000000
H    -1.546000000     4.214000000     0.532000000
H    -1.566000000     4.566000000     2.004000000
O    -0.101000000    -7.391000000    -3.732000000
H     0.127000000    -6.676000000    -3.139000000
H    -0.301000000    -6.958000000    -4.563000000
O    -3.851000000    -0.464000000     4.203000000
H    -4.182000000    -1.031000000     3.506000000
H    -2.963000000    -0.781000000     4.368000000
O     0.243000000     6.169000000    -4.409000000
H    -0.695000000     6.319000000    -4.289000000
H     0.652000000     6.997000000    -4.157000000
O     4.973000000     3.991000000    -4.009000000
H     4.778000000     3.864000000    -4.938000000
H     5.898000000     4.236000000    -3.991000000
O     5.647000000     5.108000000    -0.748000000
H     6.411000000     4.617000000    -0.445000000
H     5.058000000     4.441000000    -1.100000000
O     1.241000000    -0.038000000     4.632000000
H     1.423000000     0.431000000     3.818000000
H     1.370000000     0.615000000     5.319000000
O     6.688000000     0.847000000    -1.006000000
H     6.030000000     0.816000000    -0.311000000
H     6.180000000     0.887000000    -1.816000000
O     4.482000000    -0.446000000     0.857000000
H     5.059000000    -0.697000000     1.578000000
H     4.450000000    -1.220000000     0.295000000
O    -3.098000000     2.065000000     4.977000000
H    -2.329000000     1.947000000     5.534000000
H    -3.515000000     1.203000000     4.959000000
O    -1.172000000     7.212000000     2.449000000
H    -1.134000000     7.635000000     1.592000000
H    -0.989000000     6.290000000     2.270000000
O    -0.038000000    -4.571000000    -2.538000000
H     0.282000000    -3.752000000    -2.917000000
H     0.104000000    -4.470000000    -1.597000000
O    -4.520000000    -6.483000000     4.504000000
H    -3.837000000    -5.999000000     4.038000000
H    -4.969000000    -5.819000000     5.027000000
O     4.711000000    -3.209000000     0.347000000
H     5.409000000    -3.837000000     0.161000000
H     4.430000000    -3.420000000     1.238000000
