158
-3053.78644
C    -0.212000000    -0.239000000     1.436000000
H    -0.715000000    -0.372000000     2.391000000
C    -0.824000000     0.708000000     0.666000000
H    -1.636000000     1.322000000     1.046000000
C    -0.446000000     0.897000000    -0.660000000
H    -1.179000000     1.538000000    -1.288000000
C     0.502000000     0.101000000    -1.263000000
H     0.812000000     0.222000000    -2.298000000
C     1.158000000    -0.887000000    -0.467000000
H     2.028000000    -1.344000000    -0.930000000
C     0.744000000    -1.086000000     0.860000000
C     1.200000000    -2.291000000     1.674000000
O     2.046000000    -3.072000000     1.190000000
O     0.826000000    -2.506000000     2.833000000
O    -1.501000000    -5.035000000     1.555000000
H    -2.174000000    -4.408000000     1.289000000
H    -1.554000000    -5.052000000     2.511000000
O     1.990000000     2.823000000     3.216000000
H     2.172000000     3.731000000     2.974000000
H     1.719000000     2.406000000     2.398000000
O     6.815000000    -3.490000000     0.448000000
H     5.990000000    -3.974000000     0.479000000
H     6.852000000    -3.025000000     1.284000000
O    -3.406000000     3.903000000     0.080000000
H    -2.832000000     4.147000000    -0.646000000
H    -4.233000000     3.664000000    -0.338000000
O    -3.314000000    -1.231000000     3.241000000
H    -2.677000000    -1.873000000     3.554000000
H    -3.699000000    -0.867000000     4.039000000
O     3.879000000    -4.929000000    -2.649000000
H     2.974000000    -5.240000000    -2.667000000
H     4.265000000    -5.264000000    -3.458000000
O    -3.531000000     0.696000000     5.673000000
H    -4.145000000     0.041000000     6.003000000
H    -2.689000000     0.241000000     5.642000000
O    -0.820000000    -4.716000000    -3.204000000
H    -0.138000000    -4.825000000    -2.542000000
H    -0.861000000    -5.562000000    -3.649000000
O     0.832000000    -2.344000000    -3.857000000
H     0.901000000    -2.165000000    -4.795000000
H     0.437000000    -3.214000000    -3.807000000
O    -1.592000000    -1.000000000     5.702000000
H    -0.693000000    -0.822000000     5.424000000
H    -1.528000000    -1.799000000     6.225000000
O     0.935000000    -5.402000000     6.081000000
H     1.258000000    -5.107000000     5.230000000
H     1.649000000    -5.932000000     6.438000000
O    -2.778000000     3.747000000     2.885000000
H    -2.779000000     3.630000000     1.935000000
H    -2.885000000     4.690000000     3.010000000
O    -1.191000000    -3.850000000     4.142000000
H    -0.606000000    -3.326000000     3.595000000
H    -0.622000000    -4.217000000     4.819000000
O     3.413000000     1.480000000    -4.033000000
H     3.414000000     0.533000000    -3.894000000
H     3.155000000     1.587000000    -4.949000000
O     1.338000000    -8.007000000     0.819000000
H     0.947000000    -7.155000000     0.627000000
H     1.855000000    -7.860000000     1.611000000
O     1.417000000    -5.998000000    -2.655000000
H     0.960000000    -6.634000000    -3.206000000
H     1.089000000    -6.167000000    -1.772000000
O    -3.501000000    -2.820000000     0.958000000
H    -3.654000000    -2.224000000     1.692000000
H    -4.374000000    -3.132000000     0.717000000
O    -6.205000000     2.165000000    -4.641000000
H    -5.834000000     1.858000000    -3.813000000
H    -6.955000000     1.591000000    -4.794000000
O     5.152000000    -5.382000000     2.363000000
H     5.083000000    -5.895000000     3.168000000
H     4.927000000    -5.999000000     1.666000000
O    -1.806000000    -0.912000000    -3.340000000
H    -2.062000000    -0.927000000    -2.418000000
H    -0.952000000    -1.345000000    -3.358000000
O     0.094000000     1.645000000     4.737000000
H     0.617000000     2.150000000     4.113000000
H     0.443000000     0.756000000     4.679000000
O    -4.661000000     1.823000000     3.451000000
H    -4.348000000     1.476000000     4.287000000
H    -3.919000000     2.319000000     3.105000000
O     5.414000000    -0.441000000    -0.545000000
H     6.164000000    -0.826000000    -0.093000000
H     4.809000000    -1.171000000    -0.671000000
O    -4.686000000    -1.264000000    -3.611000000
H    -5.103000000    -1.892000000    -4.202000000
H    -4.093000000    -1.794000000    -3.078000000
O    -2.562000000     0.798000000    -5.292000000
H    -3.462000000     0.500000000    -5.424000000
H    -2.257000000     0.310000000    -4.527000000
O     5.894000000     1.452000000    -2.405000000
H     5.223000000     1.382000000    -3.085000000
H     5.737000000     0.699000000    -1.835000000
O    -1.781000000     6.892000000    -1.941000000
H    -1.610000000     6.012000000    -1.606000000
H    -1.538000000     7.474000000    -1.220000000
O     2.202000000    -4.539000000     3.712000000
H     2.879000000    -4.454000000     3.042000000
H     1.572000000    -3.848000000     3.505000000
O     0.643000000    -5.002000000    -0.235000000
H     1.053000000    -4.164000000    -0.019000000
H     0.075000000    -5.189000000     0.513000000
O    -2.016000000     4.052000000    -2.485000000
H    -1.382000000     3.718000000    -3.120000000
H    -2.583000000     4.630000000    -2.995000000
O     1.013000000    -0.941000000     4.670000000
H     0.961000000    -1.516000000     3.907000000
H     1.945000000    -0.743000000     4.758000000
O     3.245000000    -1.186000000    -3.494000000
H     3.602000000    -1.560000000    -2.688000000
H     2.328000000    -1.460000000    -3.499000000
O     3.805000000    -2.788000000    -1.157000000
H     3.196000000    -2.838000000    -0.419000000
H     3.549000000    -3.512000000    -1.728000000
O    -2.892000000     6.465000000     1.544000000
H    -3.665000000     6.908000000     1.895000000
H    -3.237000000     5.878000000     0.871000000
O     2.241000000     2.065000000     0.294000000
H     1.680000000     1.320000000     0.080000000
H     2.012000000     2.731000000    -0.354000000
O     2.621000000    -7.051000000     2.881000000
H     2.201000000    -6.268000000     3.238000000
H     3.276000000    -7.291000000     3.536000000
O     5.111000000     1.709000000     0.776000000
H     4.154000000     1.725000000     0.748000000
H     5.356000000     1.008000000     0.172000000
O     0.938000000    -0.954000000    -6.394000000
H     1.049000000    -1.274000000    -7.289000000
H     1.081000000    -0.009000000    -6.458000000
O    -0.296000000     3.295000000    -4.263000000
H    -0.702000000     4.005000000    -4.761000000
H    -0.047000000     2.651000000    -4.926000000
O     1.494000000     3.552000000    -2.189000000
H     0.727000000     3.404000000    -2.742000000
H     2.217000000     3.147000000    -2.667000000
O     0.569000000     5.118000000    -0.143000000
H     0.830000000     4.717000000    -0.972000000
H     1.231000000     4.825000000     0.484000000
O     3.815000000    -0.451000000     4.797000000
H     4.477000000    -0.007000000     4.266000000
H     4.129000000    -1.352000000     4.867000000
O    -4.450000000     1.182000000    -2.489000000
H    -3.585000000     1.216000000    -2.080000000
H    -4.474000000     0.333000000    -2.930000000
O    -5.792000000     3.137000000    -1.042000000
H    -5.605000000     2.560000000    -1.782000000
H    -6.365000000     3.813000000    -1.404000000
O     4.660000000    -6.421000000    -0.216000000
H     3.888000000    -6.960000000    -0.389000000
H     4.858000000    -6.010000000    -1.057000000
O    -2.686000000    -0.969000000    -0.827000000
H    -1.971000000    -0.541000000    -0.356000000
H    -2.960000000    -1.681000000    -0.250000000
O     6.226000000    -2.805000000    -2.713000000
H     6.424000000    -2.484000000    -1.833000000
H     5.447000000    -3.349000000    -2.600000000
O    -3.175000000    -3.295000000    -2.310000000
H    -2.430000000    -3.885000000    -2.424000000
H    -2.849000000    -2.608000000    -1.730000000
