158
-3035.82069
C    -1.219000000     0.186000000    -0.824000000
H    -2.246000000     0.310000000    -1.158000000
C    -0.820000000     1.070000000     0.208000000
H    -1.444000000     1.950000000     0.341000000
C     0.350000000     0.827000000     0.871000000
H     0.706000000     1.451000000     1.670000000
C     1.146000000    -0.246000000     0.521000000
H     2.006000000    -0.515000000     1.128000000
C     0.827000000    -1.094000000    -0.531000000
H     1.501000000    -1.900000000    -0.811000000
C    -0.413000000    -0.970000000    -1.188000000
C    -0.814000000    -2.031000000    -2.189000000
O    -1.773000000    -1.867000000    -2.951000000
O    -0.248000000    -3.137000000    -2.240000000
O     0.396000000     2.950000000     3.871000000
H     0.616000000     3.240000000     2.986000000
H    -0.528000000     2.708000000     3.822000000
O     1.537000000    -6.079000000    -1.216000000
H     2.387000000    -5.647000000    -1.137000000
H     1.340000000    -6.052000000    -2.152000000
O    -1.478000000     5.402000000     0.906000000
H    -0.609000000     5.130000000     0.610000000
H    -1.318000000     5.852000000     1.735000000
O     3.528000000    -1.023000000    -4.407000000
H     3.336000000    -0.127000000    -4.131000000
H     4.209000000    -0.928000000    -5.073000000
O    -6.496000000     0.104000000     0.077000000
H    -6.452000000     0.313000000     1.010000000
H    -7.394000000    -0.199000000    -0.059000000
O    -6.418000000     1.545000000    -2.140000000
H    -6.253000000     1.176000000    -1.272000000
H    -6.888000000     0.854000000    -2.608000000
O    -0.860000000    -5.071000000    -4.151000000
H    -0.774000000    -4.298000000    -3.593000000
H    -0.217000000    -5.690000000    -3.806000000
O     2.487000000    -4.439000000     2.647000000
H     2.234000000    -5.143000000     2.050000000
H     3.081000000    -3.891000000     2.132000000
O     4.923000000    -0.321000000     2.612000000
H     4.784000000     0.058000000     3.480000000
H     4.534000000     0.313000000     2.009000000
O     4.836000000    -1.922000000    -1.997000000
H     5.449000000    -2.657000000    -1.985000000
H     4.538000000    -1.874000000    -2.906000000
O    -0.174000000    -2.306000000     2.765000000
H     0.581000000    -2.877000000     2.623000000
H    -0.440000000    -2.039000000     1.885000000
O    -3.319000000    -4.098000000     1.133000000
H    -3.054000000    -3.546000000     1.869000000
H    -2.495000000    -4.363000000     0.724000000
O    -4.571000000    -1.798000000    -0.493000000
H    -5.266000000    -1.238000000    -0.147000000
H    -3.978000000    -1.928000000     0.248000000
O     0.118000000     6.588000000     2.805000000
H     0.915000000     7.069000000     3.029000000
H     0.421000000     5.700000000     2.613000000
O    -3.843000000     0.094000000    -3.631000000
H    -3.032000000    -0.405000000    -3.739000000
H    -4.344000000    -0.401000000    -2.982000000
O     1.964000000     2.055000000    -1.563000000
H     1.268000000     2.035000000    -2.220000000
H     1.553000000     1.716000000    -0.768000000
O    -3.582000000     1.369000000    -6.131000000
H    -3.673000000     0.676000000    -5.477000000
H    -3.363000000     0.907000000    -6.941000000
O     5.624000000     0.297000000    -0.670000000
H     5.294000000    -0.499000000    -1.089000000
H     4.875000000     0.638000000    -0.181000000
O    -5.664000000    -2.796000000    -2.954000000
H    -5.297000000    -3.659000000    -3.150000000
H    -5.100000000    -2.447000000    -2.264000000
O    -5.038000000     3.677000000     2.124000000
H    -4.890000000     3.313000000     1.251000000
H    -5.296000000     4.585000000     1.965000000
O    -0.230000000    -4.187000000    -0.011000000
H    -0.149000000    -3.783000000    -0.875000000
H     0.352000000    -4.946000000    -0.045000000
O    -1.316000000    -0.458000000     6.594000000
H    -0.556000000    -0.354000000     6.022000000
H    -1.443000000     0.407000000     6.984000000
O     3.767000000     3.961000000    -1.733000000
H     3.178000000     3.256000000    -1.465000000
H     3.277000000     4.442000000    -2.401000000
O     1.574000000     4.424000000     1.462000000
H     1.580000000     4.996000000     0.695000000
H     2.270000000     4.766000000     2.023000000
O    -0.713000000     5.507000000     5.792000000
H    -0.943000000     6.290000000     5.292000000
H    -0.387000000     4.891000000     5.136000000
O    -3.277000000    -4.213000000    -6.385000000
H    -3.193000000    -5.160000000    -6.272000000
H    -4.190000000    -4.083000000    -6.639000000
O    -4.457000000     3.134000000    -0.729000000
H    -4.932000000     2.588000000    -1.356000000
H    -4.724000000     4.029000000    -0.941000000
O    -0.361000000    -4.002000000    -6.621000000
H    -0.515000000    -4.564000000    -5.862000000
H    -1.161000000    -3.482000000    -6.700000000
O     2.140000000    -3.613000000    -3.017000000
H     1.255000000    -3.416000000    -2.710000000
H     2.456000000    -2.787000000    -3.382000000
O    -2.565000000    -1.609000000    -5.422000000
H    -2.051000000    -1.721000000    -4.622000000
H    -2.881000000    -2.489000000    -5.628000000
O     3.887000000    -2.539000000     0.935000000
H     3.975000000    -2.465000000    -0.015000000
H     4.431000000    -1.832000000     1.282000000
O    -5.333000000    -1.177000000    -6.236000000
H    -4.614000000    -1.414000000    -5.651000000
H    -6.072000000    -1.704000000    -5.934000000
O    -2.632000000    -1.034000000     1.636000000
H    -2.171000000    -0.320000000     1.195000000
H    -2.583000000    -0.813000000     2.566000000
O    -2.024000000     3.040000000    -3.968000000
H    -2.385000000     2.871000000    -4.838000000
H    -2.731000000     2.805000000    -3.366000000
O    -2.188000000    -0.368000000    -7.821000000
H    -2.038000000    -0.843000000    -7.003000000
H    -2.935000000    -0.813000000    -8.222000000
O    -3.337000000    -4.452000000    -2.842000000
H    -2.902000000    -3.602000000    -2.895000000
H    -2.707000000    -5.068000000    -3.216000000
O     2.546000000     2.563000000     5.519000000
H     2.728000000     3.344000000     6.041000000
H     1.829000000     2.824000000     4.940000000
O    -3.376000000     6.034000000    -0.884000000
H    -3.284000000     5.531000000    -1.693000000
H    -2.712000000     5.671000000    -0.298000000
O    -2.847000000     0.020000000     4.244000000
H    -2.062000000    -0.032000000     4.791000000
H    -3.495000000    -0.514000000     4.704000000
O     5.111000000     4.073000000     4.175000000
H     4.768000000     4.788000000     3.639000000
H     4.675000000     4.179000000     5.021000000
O     1.106000000    -1.169000000    -6.329000000
H     0.769000000    -2.041000000    -6.124000000
H     1.939000000    -1.118000000    -5.860000000
O     3.298000000    -5.764000000    -4.664000000
H     2.745000000    -6.273000000    -4.072000000
H     3.302000000    -4.883000000    -4.291000000
O     0.560000000    -0.330000000     4.787000000
H     0.391000000    -0.777000000     3.957000000
H     1.445000000     0.021000000     4.694000000
O     4.571000000     0.793000000     5.618000000
H     5.359000000     1.270000000     5.358000000
H     3.875000000     1.450000000     5.595000000
O     3.914000000     1.652000000     1.125000000
H     4.503000000     2.296000000     0.732000000
H     3.171000000     2.166000000     1.441000000
O     4.142000000    -5.376000000    -0.840000000
H     4.603000000    -5.615000000    -0.036000000
H     4.809000000    -4.957000000    -1.383000000
O     0.134000000     1.195000000    -3.378000000
H    -0.559000000     1.850000000    -3.466000000
H    -0.154000000     0.466000000    -3.928000000
O    -2.473000000     2.771000000     3.599000000
H    -3.214000000     3.156000000     3.131000000
H    -2.671000000     1.835000000     3.631000000
