158
-3032.10462
C    -1.440000000    -0.357000000    -0.145000000
H    -2.511000000    -0.535000000    -0.104000000
C    -0.956000000     0.763000000     0.493000000
H    -1.689000000     1.471000000     0.870000000
C     0.369000000     0.985000000     0.698000000
H     0.737000000     1.745000000     1.307000000
C     1.264000000     0.119000000     0.101000000
H     2.324000000     0.270000000     0.290000000
C     0.854000000    -0.915000000    -0.774000000
H     1.484000000    -1.591000000    -1.347000000
C    -0.525000000    -1.236000000    -0.821000000
C    -0.930000000    -2.430000000    -1.664000000
O    -2.075000000    -2.655000000    -1.899000000
O    -0.121000000    -3.275000000    -2.060000000
O     4.050000000    -4.911000000     0.787000000
H     4.047000000    -4.987000000     1.742000000
H     4.020000000    -3.969000000     0.621000000
O    -2.827000000    -0.788000000    -3.997000000
H    -2.544000000    -1.528000000    -3.459000000
H    -3.090000000    -0.119000000    -3.365000000
O    -1.942000000     5.527000000     4.778000000
H    -1.434000000     4.855000000     4.323000000
H    -2.762000000     5.091000000     5.009000000
O    -2.198000000    -4.970000000    -6.569000000
H    -1.594000000    -5.671000000    -6.324000000
H    -2.211000000    -4.389000000    -5.809000000
O     1.619000000    -5.191000000    -1.491000000
H     2.429000000    -5.104000000    -1.994000000
H     1.095000000    -4.433000000    -1.749000000
O     2.238000000     3.550000000     3.413000000
H     1.283000000     3.507000000     3.362000000
H     2.415000000     4.340000000     3.925000000
O    -1.320000000    -1.954000000    -7.046000000
H    -0.873000000    -1.814000000    -6.211000000
H    -1.535000000    -2.887000000    -7.049000000
O    -2.399000000     1.694000000     5.975000000
H    -2.194000000     2.201000000     6.761000000
H    -1.665000000     1.863000000     5.384000000
O    -5.141000000     1.088000000     2.500000000
H    -4.680000000     1.926000000     2.555000000
H    -5.405000000     0.901000000     3.401000000
O    -6.489000000    -1.790000000    -1.346000000
H    -6.080000000    -2.599000000    -1.655000000
H    -7.124000000    -2.079000000    -0.690000000
O    -1.362000000    -5.625000000    -2.381000000
H    -0.919000000    -4.780000000    -2.302000000
H    -0.670000000    -6.272000000    -2.248000000
O     1.414000000     1.091000000     5.451000000
H     2.239000000     0.917000000     4.999000000
H     1.488000000     2.000000000     5.743000000
O     4.172000000    -0.733000000    -2.436000000
H     5.121000000    -0.862000000    -2.449000000
H     3.811000000    -1.603000000    -2.607000000
O     1.543000000    -3.805000000     1.133000000
H     1.434000000    -2.882000000     0.905000000
H     1.748000000    -4.234000000     0.302000000
O    -2.218000000    -3.357000000     2.387000000
H    -1.533000000    -2.757000000     2.093000000
H    -3.037000000    -2.922000000     2.149000000
O    -4.734000000    -6.078000000     0.222000000
H    -4.209000000    -6.457000000    -0.482000000
H    -4.572000000    -5.136000000     0.163000000
O    -3.942000000    -3.679000000    -0.476000000
H    -3.150000000    -3.493000000    -0.979000000
H    -3.993000000    -2.967000000     0.162000000
O     2.316000000    -5.304000000    -5.207000000
H     2.771000000    -5.144000000    -6.033000000
H     1.981000000    -4.445000000    -4.948000000
O    -5.620000000    -0.343000000    -5.018000000
H    -5.730000000     0.239000000    -4.266000000
H    -4.741000000    -0.706000000    -4.913000000
O     2.443000000     1.352000000    -3.132000000
H     2.961000000     0.610000000    -2.818000000
H     2.857000000     1.599000000    -3.960000000
O    -4.123000000     1.094000000    -2.491000000
H    -4.100000000     2.028000000    -2.283000000
H    -5.039000000     0.844000000    -2.371000000
O     3.899000000    -2.178000000     0.603000000
H     3.731000000    -1.738000000    -0.230000000
H     4.847000000    -2.115000000     0.720000000
O     6.375000000     3.264000000     0.794000000
H     5.535000000     3.127000000     0.355000000
H     6.939000000     3.640000000     0.119000000
O    -1.684000000    -6.255000000     0.785000000
H    -0.823000000    -6.107000000     1.176000000
H    -2.170000000    -5.450000000     0.965000000
O     0.850000000    -0.485000000    -5.349000000
H     0.672000000     0.441000000    -5.186000000
H     1.560000000    -0.483000000    -5.990000000
O    -5.544000000    -4.380000000    -2.924000000
H    -5.649000000    -5.308000000    -3.133000000
H    -5.075000000    -4.373000000    -2.090000000
O     0.124000000    -0.792000000     6.994000000
H    -0.437000000    -1.195000000     6.332000000
H     0.327000000     0.074000000     6.641000000
O     4.271000000     3.809000000    -1.303000000
H     3.737000000     3.135000000    -1.725000000
H     3.687000000     4.206000000    -0.657000000
O    -4.336000000    -1.618000000     1.829000000
H    -5.060000000    -1.910000000     2.382000000
H    -4.496000000    -0.683000000     1.699000000
O    -5.719000000     4.072000000     1.909000000
H    -5.671000000     3.618000000     1.068000000
H    -6.588000000     3.857000000     2.248000000
O     1.245000000     3.765000000     6.681000000
H     1.920000000     4.332000000     6.307000000
H     1.077000000     4.132000000     7.549000000
O    -3.457000000     3.708000000    -1.049000000
H    -3.204000000     4.302000000    -1.756000000
H    -2.698000000     3.693000000    -0.466000000
O     1.459000000    -2.976000000    -4.361000000
H     0.904000000    -3.184000000    -3.609000000
H     1.303000000    -2.045000000    -4.523000000
O     3.787000000    -3.599000000    -2.436000000
H     4.417000000    -4.154000000    -1.977000000
H     3.880000000    -3.841000000    -3.357000000
O     2.576000000     4.605000000     0.907000000
H     2.748000000     5.352000000     1.481000000
H     2.345000000     3.893000000     1.503000000
O    -2.845000000    -3.797000000    -4.265000000
H    -2.382000000    -3.865000000    -3.430000000
H    -3.768000000    -3.910000000    -4.037000000
O    -0.468000000    -1.800000000     4.312000000
H     0.398000000    -1.601000000     3.955000000
H    -0.465000000    -2.750000000     4.429000000
O    -1.379000000     1.580000000    -2.278000000
H    -1.188000000     1.150000000    -1.445000000
H    -2.334000000     1.551000000    -2.348000000
O     0.228000000     5.525000000    -0.324000000
H     1.012000000     5.312000000     0.182000000
H     0.271000000     4.948000000    -1.087000000
O    -3.495000000    -7.048000000    -2.032000000
H    -2.776000000    -6.440000000    -2.202000000
H    -3.573000000    -7.559000000    -2.838000000
O     0.256000000    -7.633000000    -0.789000000
H     0.797000000    -6.899000000    -1.079000000
H    -0.521000000    -7.224000000    -0.409000000
O     4.222000000     6.249000000     2.107000000
H     4.798000000     5.868000000     2.769000000
H     4.647000000     7.072000000     1.864000000
O    -1.885000000     4.949000000     1.305000000
H    -2.277000000     5.631000000     1.848000000
H    -1.338000000     5.425000000     0.680000000
O    -0.701000000     0.958000000     3.795000000
H     0.166000000     0.925000000     4.199000000
H    -0.980000000     0.043000000     3.750000000
O     3.361000000     0.930000000     3.380000000
H     3.081000000     1.828000000     3.555000000
H     4.229000000     1.022000000     2.986000000
O     2.288000000    -1.601000000     3.072000000
H     2.571000000    -1.812000000     2.182000000
H     2.660000000    -0.735000000     3.242000000
O     0.690000000     3.450000000    -2.494000000
H    -0.099000000     2.909000000    -2.520000000
H     1.400000000     2.849000000    -2.718000000
O    -0.708000000     3.619000000     3.471000000
H    -1.340000000     3.778000000     2.770000000
H    -0.809000000     2.690000000     3.680000000
