158
-3051.70618
C    -1.415000000     0.325000000    -0.097000000
H    -2.436000000     0.691000000    -0.170000000
C    -0.492000000     1.059000000     0.547000000
H    -0.773000000     2.071000000     0.825000000
C     0.847000000     0.627000000     0.538000000
H     1.574000000     1.386000000     0.924000000
C     1.254000000    -0.572000000     0.051000000
H     2.265000000    -0.936000000     0.218000000
C     0.230000000    -1.361000000    -0.471000000
H     0.472000000    -2.355000000    -0.837000000
C    -1.077000000    -0.873000000    -0.602000000
C    -2.089000000    -1.703000000    -1.323000000
O    -3.207000000    -1.247000000    -1.655000000
O    -1.864000000    -2.901000000    -1.502000000
O    -4.937000000     0.267000000    -5.117000000
H    -5.700000000     0.640000000    -5.559000000
H    -4.809000000    -0.583000000    -5.537000000
O     4.318000000     1.324000000     3.450000000
H     4.443000000     2.271000000     3.381000000
H     3.405000000     1.222000000     3.719000000
O     1.374000000    -6.186000000    -1.599000000
H     1.356000000    -6.764000000    -0.836000000
H     0.561000000    -5.684000000    -1.538000000
O     0.752000000     4.079000000    -1.318000000
H     0.751000000     4.705000000    -2.042000000
H    -0.078000000     4.232000000    -0.867000000
O    -2.103000000     5.142000000     2.915000000
H    -2.945000000     5.292000000     2.485000000
H    -1.854000000     6.000000000     3.259000000
O    -7.842000000     1.759000000     0.478000000
H    -8.179000000     2.011000000     1.338000000
H    -6.926000000     1.533000000     0.637000000
O     0.568000000     4.048000000     3.034000000
H    -0.321000000     4.383000000     2.915000000
H     0.633000000     3.869000000     3.972000000
O    -7.562000000     0.925000000    -2.112000000
H    -7.569000000     1.606000000    -1.440000000
H    -6.634000000     0.769000000    -2.285000000
O    -0.035000000    -6.072000000    -5.243000000
H     0.139000000    -5.242000000    -4.800000000
H    -0.215000000    -6.689000000    -4.533000000
O     2.532000000     6.193000000     4.369000000
H     2.082000000     5.361000000     4.517000000
H     2.996000000     6.070000000     3.541000000
O     6.581000000     0.143000000     4.780000000
H     7.170000000     0.843000000     4.500000000
H     5.825000000     0.218000000     4.198000000
O    -3.608000000    -7.131000000     1.574000000
H    -3.185000000    -6.297000000     1.370000000
H    -3.416000000    -7.276000000     2.501000000
O    -3.129000000    -2.477000000     2.258000000
H    -3.840000000    -2.477000000     2.899000000
H    -2.383000000    -2.104000000     2.728000000
O    -1.949000000    -7.513000000    -1.606000000
H    -2.684000000    -8.109000000    -1.752000000
H    -2.257000000    -6.669000000    -1.936000000
O    -4.915000000     0.770000000    -2.315000000
H    -4.328000000     0.065000000    -2.041000000
H    -5.050000000     0.620000000    -3.250000000
O    -0.951000000     1.719000000    -5.168000000
H    -1.476000000     0.942000000    -4.980000000
H    -0.592000000     1.978000000    -4.319000000
O     3.138000000     3.952000000    -3.980000000
H     2.460000000     4.510000000    -3.600000000
H     2.850000000     3.804000000    -4.880000000
O    -4.444000000    -0.709000000     0.659000000
H    -4.251000000    -1.006000000    -0.230000000
H    -3.915000000    -1.276000000     1.221000000
O     6.909000000     4.409000000     0.471000000
H     6.465000000     3.616000000     0.171000000
H     7.830000000     4.158000000     0.539000000
O    -2.401000000    -4.673000000     1.043000000
H    -2.805000000    -4.134000000     1.724000000
H    -2.381000000    -4.108000000     0.271000000
O     0.950000000    -0.797000000    -3.981000000
H     0.198000000    -0.229000000    -4.149000000
H     1.523000000    -0.666000000    -4.736000000
O    -5.737000000    -3.677000000     1.131000000
H    -5.501000000    -4.602000000     1.063000000
H    -4.901000000    -3.225000000     1.245000000
O     4.767000000     1.370000000    -0.420000000
H     4.897000000     0.578000000     0.102000000
H     4.122000000     1.118000000    -1.081000000
O     3.670000000     4.120000000     2.763000000
H     2.734000000     3.924000000     2.721000000
H     3.918000000     4.298000000     1.856000000
O     3.453000000     0.716000000    -2.724000000
H     3.656000000    -0.145000000    -3.088000000
H     2.566000000     0.903000000    -3.032000000
O    -3.056000000     3.183000000     4.810000000
H    -2.593000000     3.414000000     4.005000000
H    -3.932000000     3.551000000     4.696000000
O     5.709000000     2.878000000    -2.775000000
H     4.835000000     3.235000000    -2.934000000
H     5.567000000     2.167000000    -2.151000000
O    -2.572000000    -5.389000000    -6.057000000
H    -2.199000000    -4.908000000    -5.318000000
H    -1.883000000    -6.002000000    -6.315000000
O    -4.229000000     2.918000000    -0.965000000
H    -4.234000000     2.229000000    -1.630000000
H    -4.455000000     2.467000000    -0.151000000
O    -0.352000000    -3.557000000    -4.023000000
H    -0.075000000    -2.666000000    -4.234000000
H    -0.834000000    -3.471000000    -3.201000000
O     3.462000000    -3.947000000    -4.129000000
H     2.803000000    -4.376000000    -3.583000000
H     4.260000000    -4.455000000    -3.985000000
O    -6.556000000     3.957000000    -1.938000000
H    -5.722000000     3.489000000    -1.961000000
H    -6.449000000     4.603000000    -1.240000000
O    -4.912000000    -3.058000000    -3.175000000
H    -4.577000000    -2.534000000    -2.447000000
H    -5.337000000    -3.806000000    -2.756000000
O     4.158000000    -3.013000000     1.967000000
H     3.536000000    -3.464000000     1.396000000
H     4.623000000    -3.717000000     2.419000000
O    -3.986000000    -2.182000000    -5.761000000
H    -4.349000000    -2.602000000    -4.981000000
H    -4.198000000    -2.783000000    -6.476000000
O    -1.027000000    -1.657000000     4.441000000
H    -0.357000000    -1.197000000     3.936000000
H    -0.545000000    -2.327000000     4.926000000
O    -2.237000000    -0.340000000    -4.139000000
H    -2.357000000     0.064000000    -3.279000000
H    -3.120000000    -0.588000000    -4.413000000
O    -2.960000000    -4.998000000    -2.558000000
H    -3.872000000    -4.714000000    -2.634000000
H    -2.475000000    -4.195000000    -2.369000000
O    -4.970000000     1.624000000     1.390000000
H    -4.871000000     1.709000000     2.338000000
H    -4.738000000     0.713000000     1.206000000
O    -1.960000000     4.328000000    -1.170000000
H    -2.747000000     3.859000000    -0.891000000
H    -2.049000000     4.400000000    -2.121000000
O     1.916000000     0.697000000     4.699000000
H     2.022000000     0.029000000     4.021000000
H     1.918000000     0.206000000     5.521000000
O     1.898000000    -1.404000000     3.123000000
H     2.135000000    -2.245000000     3.513000000
H     1.734000000    -1.605000000     2.201000000
O     3.235000000     4.368000000    -0.036000000
H     2.286000000     4.376000000    -0.157000000
H     3.541000000     3.647000000    -0.586000000
O     5.269000000    -0.557000000     1.549000000
H     4.902000000    -1.415000000     1.764000000
H     4.759000000     0.059000000     2.074000000
O     3.419000000    -4.700000000    -0.053000000
H     2.993000000    -5.557000000    -0.019000000
H     4.028000000    -4.765000000    -0.788000000
O     0.649000000    -5.112000000     2.172000000
H     0.436000000    -5.856000000     1.609000000
H    -0.198000000    -4.717000000     2.378000000
O     0.296000000     1.528000000    -2.629000000
H     0.273000000     0.899000000    -1.907000000
H     0.218000000     2.382000000    -2.205000000
O     1.224000000     3.233000000     5.423000000
H     1.694000000     2.430000000     5.199000000
H     0.387000000     2.931000000     5.777000000
