158
-3054.47930
C    -1.483000000     0.309000000     0.069000000
H    -2.523000000     0.625000000     0.091000000
C    -0.512000000     0.888000000     0.872000000
H    -0.685000000     1.612000000     1.664000000
C     0.873000000     0.563000000     0.667000000
H     1.658000000     0.995000000     1.251000000
C     1.245000000    -0.404000000    -0.256000000
H     2.290000000    -0.655000000    -0.419000000
C     0.290000000    -1.015000000    -1.055000000
H     0.585000000    -1.650000000    -1.886000000
C    -1.108000000    -0.689000000    -0.864000000
C    -2.220000000    -1.406000000    -1.599000000
O    -3.323000000    -0.876000000    -1.795000000
O    -1.891000000    -2.430000000    -2.192000000
O    -5.697000000     0.903000000    -4.884000000
H    -6.421000000     0.537000000    -5.392000000
H    -5.071000000     1.205000000    -5.542000000
O     3.374000000     3.233000000     3.070000000
H     2.978000000     2.443000000     2.701000000
H     2.637000000     3.827000000     3.212000000
O     4.462000000    -3.025000000    -0.674000000
H     5.087000000    -3.655000000    -0.315000000
H     3.750000000    -3.003000000    -0.034000000
O     4.307000000     1.068000000    -2.997000000
H     3.706000000     0.330000000    -3.101000000
H     5.117000000     0.778000000    -3.418000000
O    -7.123000000     1.695000000    -0.259000000
H    -6.400000000     2.321000000    -0.316000000
H    -6.707000000     0.839000000    -0.362000000
O     0.995000000     6.072000000     2.599000000
H     0.377000000     6.711000000     2.245000000
H     0.492000000     5.259000000     2.658000000
O    -6.823000000    -0.219000000    -2.540000000
H    -6.426000000    -0.993000000    -2.940000000
H    -6.465000000     0.517000000    -3.035000000
O     1.632000000    -4.668000000    -4.516000000
H     1.068000000    -3.960000000    -4.829000000
H     2.329000000    -4.223000000    -4.034000000
O     5.729000000     2.514000000     4.077000000
H     6.261000000     3.264000000     4.343000000
H     4.913000000     2.899000000     3.759000000
O    -5.169000000    -3.095000000     1.755000000
H    -4.529000000    -2.951000000     2.452000000
H    -4.742000000    -3.713000000     1.161000000
O    -1.250000000    -4.837000000    -2.779000000
H    -1.667000000    -4.005000000    -2.557000000
H    -0.727000000    -4.643000000    -3.557000000
O    -3.848000000     1.680000000    -2.671000000
H    -3.748000000     0.776000000    -2.372000000
H    -4.505000000     1.631000000    -3.365000000
O    -1.168000000    -7.470000000    -2.036000000
H    -1.300000000    -6.607000000    -2.429000000
H    -0.606000000    -7.305000000    -1.278000000
O    -0.261000000     0.893000000    -3.021000000
H    -0.246000000     0.637000000    -2.099000000
H    -0.583000000     1.795000000    -3.013000000
O     7.795000000    -0.044000000     1.008000000
H     7.806000000    -0.595000000     0.225000000
H     6.990000000     0.468000000     0.929000000
O    -5.262000000    -0.414000000     0.156000000
H    -4.804000000    -0.483000000    -0.682000000
H    -5.229000000    -1.299000000     0.520000000
O    -4.570000000     4.303000000     2.535000000
H    -4.439000000     3.438000000     2.146000000
H    -5.512000000     4.352000000     2.696000000
O    -1.300000000    -3.644000000     1.683000000
H    -1.978000000    -3.562000000     1.011000000
H    -0.499000000    -3.346000000     1.252000000
O     5.615000000    -0.043000000     5.164000000
H     5.940000000    -0.511000000     4.395000000
H     5.467000000     0.851000000     4.855000000
O     2.728000000    -0.608000000     5.081000000
H     3.155000000     0.147000000     5.485000000
H     3.393000000    -0.976000000     4.499000000
O     5.897000000     2.862000000    -1.040000000
H     5.848000000     2.215000000    -0.336000000
H     5.796000000     2.351000000    -1.843000000
O    -0.760000000     2.789000000     6.298000000
H     0.005000000     3.101000000     5.814000000
H    -1.421000000     2.631000000     5.624000000
O     3.755000000     6.439000000     1.536000000
H     3.042000000     5.993000000     1.994000000
H     3.885000000     5.927000000     0.738000000
O     0.436000000    -4.168000000    -0.467000000
H     0.087000000    -4.995000000    -0.135000000
H     0.304000000    -4.215000000    -1.414000000
O     2.363000000     2.954000000    -2.394000000
H     3.039000000     2.313000000    -2.611000000
H     1.674000000     2.441000000    -1.970000000
O    -2.477000000     2.459000000     4.234000000
H    -2.891000000     3.310000000     4.374000000
H    -3.079000000     1.992000000     3.654000000
O     1.890000000     5.172000000     5.100000000
H     1.212000000     5.315000000     4.440000000
H     2.373000000     5.998000000     5.130000000
O    -4.019000000    -5.563000000    -4.246000000
H    -3.179000000    -5.106000000    -4.192000000
H    -4.122000000    -5.765000000    -5.176000000
O    -2.031000000     5.371000000     2.117000000
H    -1.981000000     6.011000000     2.827000000
H    -2.965000000     5.183000000     2.028000000
O    -0.622000000    -3.220000000    -5.221000000
H    -1.271000000    -2.521000000    -5.144000000
H    -0.998000000    -3.827000000    -5.859000000
O     2.143000000    -0.488000000    -3.874000000
H     1.253000000    -0.203000000    -3.667000000
H     2.195000000    -0.436000000    -4.829000000
O    -5.636000000     3.806000000    -0.970000000
H    -4.892000000     3.366000000    -1.381000000
H    -5.900000000     4.473000000    -1.604000000
O    -4.194000000    -2.182000000    -3.900000000
H    -3.657000000    -1.815000000    -3.198000000
H    -4.992000000    -2.478000000    -3.461000000
O     4.116000000    -1.494000000     2.428000000
H     3.474000000    -1.970000000     1.901000000
H     4.916000000    -2.017000000     2.361000000
O    -1.751000000    -0.834000000    -4.866000000
H    -1.450000000    -0.131000000    -4.290000000
H    -2.525000000    -1.188000000    -4.429000000
O    -3.196000000    -4.038000000    -0.164000000
H    -3.802000000    -4.767000000    -0.298000000
H    -3.215000000    -3.557000000    -0.992000000
O    -4.348000000     1.448000000     2.157000000
H    -4.787000000     0.931000000     1.482000000
H    -4.658000000     1.076000000     2.983000000
O    -0.810000000     5.030000000    -0.621000000
H    -1.427000000     5.106000000     0.107000000
H    -0.221000000     5.777000000    -0.515000000
O     0.563000000     0.998000000     4.177000000
H     0.009000000     0.357000000     3.732000000
H     1.248000000     0.475000000     4.594000000
O    -6.595000000    -3.226000000    -2.847000000
H    -7.178000000    -3.369000000    -3.593000000
H    -6.462000000    -4.099000000    -2.476000000
O    -1.046000000    -1.140000000     3.239000000
H    -1.404000000    -2.027000000     3.255000000
H    -0.956000000    -0.935000000     2.309000000
O     3.843000000     4.807000000    -0.497000000
H     3.604000000     4.683000000    -1.416000000
H     4.595000000     4.230000000    -0.365000000
O     6.771000000    -2.257000000    -2.419000000
H     5.862000000    -2.350000000    -2.133000000
H     6.708000000    -2.049000000    -3.352000000
O     5.111000000     1.127000000     1.276000000
H     4.826000000     0.276000000     1.608000000
H     5.325000000     1.631000000     2.061000000
O     3.336000000    -2.926000000    -3.406000000
H     3.744000000    -2.907000000    -2.540000000
H     2.880000000    -2.088000000    -3.475000000
O     2.317000000    -3.220000000     1.215000000
H     1.919000000    -3.510000000     0.394000000
H     1.601000000    -3.246000000     1.850000000
O    -2.227000000     3.081000000    -4.735000000
H    -2.432000000     2.680000000    -3.891000000
H    -2.930000000     2.789000000    -5.316000000
O     0.286000000     3.466000000     3.103000000
H     0.610000000     2.742000000     3.639000000
H    -0.647000000     3.283000000     2.993000000
