158
-3044.43766
C    -1.511000000    -0.199000000     0.138000000
H    -2.569000000    -0.300000000     0.364000000
C    -0.669000000     0.581000000     0.953000000
H    -1.045000000     1.109000000     1.826000000
C     0.676000000     0.706000000     0.747000000
H     1.271000000     1.382000000     1.382000000
C     1.300000000    -0.104000000    -0.198000000
H     2.379000000    -0.132000000    -0.325000000
C     0.560000000    -0.941000000    -1.011000000
H     1.053000000    -1.417000000    -1.854000000
C    -0.882000000    -0.951000000    -0.891000000
C    -1.726000000    -1.789000000    -1.852000000
O    -2.915000000    -1.580000000    -1.878000000
O    -1.167000000    -2.482000000    -2.701000000
O    -7.385000000    -3.191000000    -2.308000000
H    -6.577000000    -3.096000000    -2.811000000
H    -7.357000000    -2.477000000    -1.671000000
O     6.207000000     5.293000000     0.833000000
H     5.360000000     5.494000000     1.231000000
H     6.585000000     4.622000000     1.401000000
O     4.549000000     1.063000000     1.707000000
H     4.864000000     1.486000000     0.908000000
H     4.283000000     1.787000000     2.273000000
O     5.229000000     1.803000000    -1.103000000
H     5.783000000     2.298000000    -1.707000000
H     4.590000000     2.441000000    -0.786000000
O     3.204000000    -4.996000000    -2.573000000
H     3.594000000    -5.606000000    -3.200000000
H     2.349000000    -4.783000000    -2.947000000
O     0.818000000     3.643000000    -1.136000000
H     0.765000000     2.698000000    -1.279000000
H     0.450000000     4.026000000    -1.932000000
O     2.867000000     1.251000000     5.791000000
H     2.867000000     0.746000000     6.604000000
H     2.476000000     2.091000000     6.031000000
O    -6.646000000    -0.178000000     1.277000000
H    -5.860000000     0.009000000     0.764000000
H    -7.339000000    -0.280000000     0.624000000
O     0.670000000     1.182000000    -6.979000000
H     0.327000000     2.076000000    -7.001000000
H     0.542000000     0.899000000    -6.074000000
O    -5.492000000     0.870000000    -3.615000000
H    -6.356000000     1.278000000    -3.680000000
H    -4.971000000     1.304000000    -4.291000000
O    -0.089000000     6.929000000     2.939000000
H    -0.034000000     6.336000000     2.190000000
H    -0.905000000     7.412000000     2.802000000
O    -0.962000000    -1.957000000    -5.595000000
H    -1.198000000    -2.006000000    -4.669000000
H    -1.040000000    -1.028000000    -5.813000000
O    -2.189000000    -4.109000000     2.160000000
H    -1.566000000    -4.206000000     1.440000000
H    -2.380000000    -5.006000000     2.435000000
O    -4.771000000     0.167000000    -1.096000000
H    -4.102000000    -0.474000000    -1.338000000
H    -5.139000000     0.456000000    -1.931000000
O    -2.194000000     1.628000000    -2.755000000
H    -2.749000000     0.865000000    -2.919000000
H    -2.023000000     1.602000000    -1.814000000
O     3.257000000    -1.464000000     4.664000000
H     2.582000000    -1.973000000     4.216000000
H     2.870000000    -0.595000000     4.772000000
O    -4.465000000     2.823000000     0.310000000
H    -4.431000000     2.156000000    -0.376000000
H    -5.365000000     3.149000000     0.284000000
O     0.939000000    -4.180000000     1.388000000
H     0.959000000    -3.408000000     1.953000000
H     1.555000000    -4.790000000     1.793000000
O    -5.389000000    -3.861000000     2.314000000
H    -5.132000000    -3.755000000     1.398000000
H    -4.835000000    -4.571000000     2.637000000
O     2.010000000    -0.292000000    -4.361000000
H     1.827000000    -1.133000000    -3.941000000
H     2.631000000    -0.504000000    -5.059000000
O    -2.910000000    -2.331000000     4.261000000
H    -2.441000000    -1.499000000     4.199000000
H    -2.843000000    -2.709000000     3.384000000
O     2.118000000     2.437000000    -3.709000000
H     2.872000000     2.537000000    -4.290000000
H     1.965000000     1.493000000    -3.675000000
O    -0.601000000    -0.186000000     4.691000000
H    -1.155000000     0.527000000     4.373000000
H     0.216000000     0.241000000     4.947000000
O     1.880000000     3.664000000     6.366000000
H     1.937000000     4.085000000     7.224000000
H     1.694000000     4.381000000     5.760000000
O     5.630000000    -0.259000000    -3.260000000
H     5.304000000     0.143000000    -2.455000000
H     4.956000000    -0.895000000    -3.500000000
O    -1.847000000    -6.681000000    -4.639000000
H    -1.802000000    -5.781000000    -4.318000000
H    -1.136000000    -7.134000000    -4.187000000
O     0.352000000     3.668000000     3.723000000
H    -0.059000000     4.038000000     2.942000000
H     0.517000000     4.423000000     4.288000000
O     6.531000000     1.179000000     3.956000000
H     6.445000000     0.543000000     4.667000000
H     5.896000000     0.892000000     3.300000000
O     0.864000000     6.007000000     5.259000000
H     0.842000000     6.689000000     5.930000000
H     0.417000000     6.397000000     4.507000000
O    -4.113000000    -3.564000000    -0.416000000
H    -4.061000000    -2.796000000    -0.985000000
H    -3.296000000    -4.036000000    -0.576000000
O    -2.476000000     4.687000000    -0.492000000
H    -3.299000000     4.208000000    -0.396000000
H    -2.628000000     5.279000000    -1.229000000
O    -2.880000000    -4.003000000    -4.785000000
H    -2.614000000    -3.411000000    -4.082000000
H    -2.499000000    -3.622000000    -5.576000000
O     3.897000000    -4.456000000     0.132000000
H     3.235000000    -4.369000000    -0.554000000
H     4.084000000    -5.394000000     0.167000000
O    -2.985000000     1.180000000     4.043000000
H    -2.905000000     2.105000000     3.813000000
H    -3.823000000     1.119000000     4.501000000
O    -5.208000000    -2.123000000    -3.503000000
H    -4.622000000    -2.246000000    -2.757000000
H    -4.966000000    -1.267000000    -3.859000000
O     0.595000000    -3.947000000    -6.048000000
H     0.205000000    -4.384000000    -6.805000000
H     0.049000000    -3.173000000    -5.911000000
O     3.440000000     5.719000000     1.573000000
H     3.348000000     6.574000000     1.993000000
H     3.459000000     5.096000000     2.299000000
O     0.026000000    -5.656000000    -1.024000000
H     0.368000000    -5.106000000    -0.319000000
H     0.165000000    -5.141000000    -1.818000000
O     4.361000000    -2.700000000    -3.668000000
H     4.158000000    -3.499000000    -3.182000000
H     5.260000000    -2.826000000    -3.972000000
O    -2.904000000     3.634000000     2.697000000
H    -2.001000000     3.818000000     2.438000000
H    -3.226000000     3.026000000     2.032000000
O    -0.365000000     4.737000000     1.367000000
H    -1.106000000     4.742000000     0.762000000
H     0.380000000     4.462000000     0.832000000
O     5.207000000     3.781000000    -3.110000000
H     5.223000000     4.606000000    -3.594000000
H     4.679000000     3.970000000    -2.333000000
O     0.983000000    -1.858000000     2.833000000
H     0.408000000    -1.442000000     3.475000000
H     0.870000000    -1.338000000     2.038000000
O     3.491000000     3.856000000    -0.699000000
H     3.508000000     4.444000000     0.056000000
H     2.560000000     3.703000000    -0.863000000
O     5.252000000    -1.630000000     0.663000000
H     4.619000000    -2.276000000     0.350000000
H     4.790000000    -0.794000000     0.602000000
O     0.573000000    -4.289000000    -3.430000000
H    -0.011000000    -3.635000000    -3.045000000
H     0.581000000    -4.082000000    -4.364000000
O    -5.860000000    -5.621000000    -0.243000000
H    -5.507000000    -4.827000000    -0.644000000
H    -6.574000000    -5.885000000    -0.823000000
O     3.125000000     2.673000000     3.383000000
H     2.211000000     2.947000000     3.464000000
H     3.238000000     2.010000000     4.065000000
