158
-3033.27655
C     0.020000000    -1.210000000    -0.890000000
H     0.085000000    -2.200000000    -1.332000000
C     0.607000000    -1.038000000     0.352000000
H     1.183000000    -1.855000000     0.779000000
C     0.602000000     0.144000000     1.049000000
H     1.155000000     0.254000000     2.003000000
C     0.041000000     1.268000000     0.453000000
H     0.102000000     2.212000000     0.988000000
C    -0.702000000     1.118000000    -0.720000000
H    -1.287000000     1.916000000    -1.171000000
C    -0.645000000    -0.069000000    -1.437000000
C    -1.408000000    -0.313000000    -2.716000000
O    -1.285000000    -1.394000000    -3.324000000
O    -2.122000000     0.616000000    -3.167000000
O     4.118000000    -2.647000000    -2.717000000
H     3.761000000    -1.944000000    -2.175000000
H     3.454000000    -3.335000000    -2.685000000
O    -2.207000000    -0.865000000     2.336000000
H    -1.408000000    -0.519000000     1.939000000
H    -2.299000000    -0.377000000     3.154000000
O     1.961000000     1.837000000    -3.706000000
H     1.045000000     2.104000000    -3.784000000
H     2.280000000     2.300000000    -2.931000000
O     2.466000000    -3.577000000     2.567000000
H     2.195000000    -2.838000000     3.111000000
H     3.421000000    -3.519000000     2.542000000
O     1.959000000    -4.335000000    -2.683000000
H     2.123000000    -5.093000000    -3.243000000
H     1.913000000    -4.697000000    -1.798000000
O     2.565000000     2.755000000     1.880000000
H     2.200000000     2.152000000     1.232000000
H     3.478000000     2.868000000     1.615000000
O    -4.157000000     4.924000000    -5.072000000
H    -5.096000000     4.837000000    -5.233000000
H    -3.877000000     4.046000000    -4.812000000
O    -3.702000000    -3.210000000     2.194000000
H    -3.907000000    -3.631000000     3.028000000
H    -3.168000000    -2.453000000     2.433000000
O     3.131000000     3.987000000    -1.112000000
H     2.828000000     4.186000000    -1.998000000
H     3.871000000     3.393000000    -1.240000000
O    -5.085000000    -2.766000000    -0.053000000
H    -4.455000000    -2.860000000    -0.767000000
H    -4.547000000    -2.720000000     0.737000000
O     1.484000000    -5.096000000     0.264000000
H     0.531000000    -5.128000000     0.180000000
H     1.642000000    -4.443000000     0.945000000
O    -3.387000000     5.269000000    -0.051000000
H    -3.326000000     5.991000000    -0.676000000
H    -4.191000000     4.810000000    -0.294000000
O    -2.964000000    -3.192000000    -1.960000000
H    -2.542000000    -2.646000000    -2.623000000
H    -2.291000000    -3.823000000    -1.705000000
O    -2.847000000    -0.416000000    -7.167000000
H    -3.243000000    -0.637000000    -6.325000000
H    -3.383000000    -0.877000000    -7.813000000
O    -2.325000000    -5.061000000     1.008000000
H    -2.808000000    -4.482000000     1.599000000
H    -2.645000000    -5.938000000     1.219000000
O     2.222000000    -6.238000000     3.229000000
H     2.870000000    -6.738000000     2.731000000
H     2.419000000    -5.324000000     3.027000000
O    -5.774000000    -3.207000000    -2.944000000
H    -5.185000000    -3.351000000    -2.203000000
H    -5.816000000    -4.056000000    -3.385000000
O     2.020000000    -1.981000000     7.319000000
H     2.021000000    -2.851000000     6.920000000
H     2.803000000    -1.556000000     6.970000000
O    -1.919000000    -6.206000000    -3.964000000
H    -1.653000000    -6.210000000    -3.045000000
H    -1.372000000    -5.533000000    -4.369000000
O    -0.923000000    -3.180000000     5.658000000
H    -1.114000000    -2.286000000     5.942000000
H    -1.766000000    -3.630000000     5.701000000
O    -1.557000000    -5.955000000    -1.290000000
H    -1.915000000    -5.772000000    -0.422000000
H    -0.905000000    -6.640000000    -1.141000000
O    -5.619000000     1.022000000    -3.204000000
H    -5.478000000     0.768000000    -2.292000000
H    -5.197000000     0.330000000    -3.713000000
O     3.490000000    -0.664000000     5.227000000
H     3.607000000     0.073000000     4.628000000
H     2.831000000    -1.214000000     4.804000000
O    -3.036000000    -4.294000000    -6.288000000
H    -3.666000000    -4.746000000    -5.726000000
H    -2.219000000    -4.777000000    -6.170000000
O    -4.969000000     0.284000000    -0.765000000
H    -4.928000000    -0.634000000    -0.497000000
H    -4.478000000     0.753000000    -0.089000000
O     5.224000000     2.727000000     1.242000000
H     5.368000000     3.443000000     1.861000000
H     6.066000000     2.274000000     1.200000000
O     1.074000000    -1.808000000     4.208000000
H     0.589000000    -2.520000000     4.624000000
H     0.485000000    -1.055000000     4.257000000
O    -0.359000000    -3.756000000    -4.155000000
H     0.271000000    -3.946000000    -3.460000000
H    -0.695000000    -2.885000000    -3.944000000
O     2.474000000     5.148000000     3.132000000
H     2.274000000     4.317000000     2.702000000
H     2.591000000     5.768000000     2.412000000
O    -3.948000000    -0.813000000    -4.413000000
H    -4.161000000    -1.639000000    -3.978000000
H    -3.135000000    -0.527000000    -3.997000000
O     3.257000000     2.035000000     4.631000000
H     2.654000000     2.454000000     4.017000000
H     4.069000000     2.535000000     4.548000000
O    -0.859000000     5.456000000    -2.251000000
H    -0.963000000     4.665000000    -2.780000000
H    -1.749000000     5.788000000    -2.139000000
O     0.924000000     5.331000000    -0.130000000
H     0.290000000     5.120000000    -0.816000000
H     1.603000000     4.661000000    -0.217000000
O    -0.708000000     2.816000000    -3.837000000
H    -1.354000000     2.164000000    -3.566000000
H    -1.071000000     3.195000000    -4.637000000
O    -2.752000000     4.682000000     2.798000000
H    -3.566000000     4.303000000     3.130000000
H    -2.959000000     4.945000000     1.901000000
O    -3.532000000     2.070000000    -5.017000000
H    -4.457000000     1.986000000    -4.784000000
H    -3.106000000     1.338000000    -4.571000000
O     0.109000000     2.659000000    -7.062000000
H     0.050000000     1.831000000    -6.586000000
H    -0.612000000     3.186000000    -6.718000000
O    -3.573000000     1.876000000     1.047000000
H    -2.760000000     1.479000000     1.361000000
H    -3.313000000     2.373000000     0.272000000
O     5.303000000    -2.927000000     1.806000000
H     5.852000000    -3.456000000     2.385000000
H     5.652000000    -3.091000000     0.930000000
O    -0.396000000    -0.104000000    -5.970000000
H    -0.527000000    -0.377000000    -5.062000000
H    -1.229000000    -0.299000000    -6.401000000
O    -1.859000000     1.637000000     3.794000000
H    -2.185000000     2.008000000     4.614000000
H    -1.659000000     2.399000000     3.249000000
O     4.459000000    -0.160000000     1.871000000
H     5.297000000     0.303000000     1.864000000
H     4.696000000    -1.082000000     1.971000000
O     0.227000000    -5.906000000    -6.145000000
H     0.113000000    -5.073000000    -5.689000000
H     0.430000000    -5.659000000    -7.048000000
O     3.748000000    -0.526000000    -0.763000000
H     3.854000000    -0.527000000     0.188000000
H     2.911000000    -0.086000000    -0.910000000
O     2.638000000     0.216000000    -5.618000000
H     2.522000000     0.669000000    -4.782000000
H     1.747000000     0.028000000    -5.913000000
O     0.739000000     4.064000000     5.383000000
H    -0.182000000     4.325000000     5.386000000
H     1.137000000     4.597000000     4.695000000
O     1.810000000     2.323000000     7.037000000
H     2.445000000     1.971000000     6.414000000
H     1.242000000     2.885000000     6.509000000
O    -0.563000000    -1.134000000     7.409000000
H     0.305000000    -1.328000000     7.056000000
H    -0.761000000    -1.874000000     7.982000000
