158
-3031.28294
C    -0.405000000    -1.344000000    -0.368000000
H    -0.722000000    -2.371000000    -0.529000000
C    -0.138000000    -0.859000000     0.921000000
H    -0.245000000    -1.581000000     1.727000000
C     0.319000000     0.427000000     1.113000000
H     0.465000000     0.732000000     2.142000000
C     0.443000000     1.293000000     0.031000000
H     0.816000000     2.299000000     0.207000000
C     0.193000000     0.773000000    -1.280000000
H     0.292000000     1.510000000    -2.072000000
C    -0.323000000    -0.507000000    -1.468000000
C    -0.619000000    -1.090000000    -2.836000000
O    -0.827000000    -2.304000000    -2.970000000
O    -0.830000000    -0.360000000    -3.785000000
O     3.859000000    -2.045000000    -0.189000000
H     4.351000000    -1.568000000    -0.857000000
H     3.276000000    -2.620000000    -0.685000000
O    -2.145000000     0.097000000     4.918000000
H    -2.980000000     0.557000000     4.841000000
H    -2.275000000    -0.519000000     5.638000000
O     1.758000000     3.440000000    -5.580000000
H     0.982000000     2.982000000    -5.258000000
H     2.454000000     3.186000000    -4.974000000
O     3.037000000    -4.073000000     2.728000000
H     3.631000000    -4.610000000     3.253000000
H     2.998000000    -3.236000000     3.190000000
O     3.024000000    -4.351000000    -1.531000000
H     2.668000000    -4.703000000    -2.347000000
H     2.609000000    -4.872000000    -0.844000000
O     2.341000000     4.328000000     0.885000000
H     2.608000000     4.489000000    -0.020000000
H     3.123000000     4.521000000     1.402000000
O    -4.104000000     3.544000000    -2.576000000
H    -3.991000000     3.322000000    -3.500000000
H    -4.225000000     2.700000000    -2.141000000
O    -2.362000000    -3.446000000     2.612000000
H    -2.602000000    -4.365000000     2.729000000
H    -2.867000000    -2.980000000     3.278000000
O     2.270000000     3.702000000     5.419000000
H     2.678000000     2.873000000     5.171000000
H     1.772000000     3.966000000     4.645000000
O    -4.676000000    -3.710000000     0.329000000
H    -4.634000000    -3.461000000    -0.595000000
H    -3.804000000    -3.510000000     0.670000000
O     1.753000000    -5.282000000     0.671000000
H     0.882000000    -5.151000000     1.046000000
H     2.351000000    -4.909000000     1.319000000
O    -3.154000000     3.196000000     1.489000000
H    -3.392000000     3.905000000     0.891000000
H    -2.891000000     2.477000000     0.915000000
O    -2.479000000    -1.355000000    -7.889000000
H    -2.786000000    -2.233000000    -7.661000000
H    -1.739000000    -1.201000000    -7.302000000
O    -3.403000000    -3.209000000    -2.124000000
H    -2.506000000    -3.015000000    -2.394000000
H    -3.437000000    -4.165000000    -2.074000000
O    -0.227000000    -5.236000000     2.540000000
H    -0.790000000    -4.475000000     2.681000000
H     0.173000000    -5.400000000     3.394000000
O    -4.969000000    -1.610000000    -3.403000000
H    -4.271000000    -2.064000000    -2.931000000
H    -5.255000000    -2.236000000    -4.068000000
O    -4.467000000     2.324000000    -5.177000000
H    -4.149000000     1.630000000    -4.600000000
H    -5.416000000     2.323000000    -5.051000000
O    -2.037000000    -3.904000000    -4.648000000
H    -1.134000000    -3.985000000    -4.956000000
H    -2.013000000    -3.176000000    -4.027000000
O     3.888000000     0.805000000     6.696000000
H     4.710000000     1.237000000     6.465000000
H     3.407000000     0.748000000     5.870000000
O    -5.364000000     0.953000000    -1.330000000
H    -5.732000000     0.179000000    -0.904000000
H    -4.416000000     0.823000000    -1.286000000
O     2.335000000    -1.777000000     4.405000000
H     1.704000000    -1.073000000     4.255000000
H     1.848000000    -2.433000000     4.904000000
O    -3.703000000    -3.559000000    -6.672000000
H    -3.054000000    -3.603000000    -5.970000000
H    -4.546000000    -3.553000000    -6.219000000
O     3.170000000     2.949000000    -2.874000000
H     3.848000000     2.591000000    -3.447000000
H     3.509000000     2.816000000    -1.989000000
O     0.436000000     0.306000000     4.831000000
H    -0.516000000     0.314000000     4.726000000
H     0.577000000     0.528000000     5.751000000
O     1.632000000    -2.948000000    -4.260000000
H     1.664000000    -3.894000000    -4.403000000
H     0.982000000    -2.833000000    -3.567000000
O     0.656000000     4.111000000     3.104000000
H     1.043000000     4.072000000     2.230000000
H    -0.285000000     4.188000000     2.946000000
O    -1.194000000    -6.621000000     0.055000000
H    -1.135000000    -5.844000000     0.612000000
H    -0.301000000    -6.962000000     0.025000000
O    -3.437000000     0.565000000    -3.596000000
H    -4.164000000    -0.056000000    -3.650000000
H    -2.652000000     0.016000000    -3.604000000
O     3.183000000     1.300000000     4.038000000
H     3.502000000     1.374000000     3.139000000
H     2.344000000     0.847000000     3.959000000
O     0.876000000     4.211000000    -2.568000000
H     1.803000000     4.123000000    -2.789000000
H     0.471000000     3.414000000    -2.912000000
O     1.012000000     6.479000000    -0.202000000
H     0.906000000     6.507000000     0.749000000
H     0.852000000     5.565000000    -0.435000000
O    -3.857000000    -6.335000000    -4.718000000
H    -3.381000000    -6.899000000    -4.108000000
H    -3.474000000    -5.467000000    -4.590000000
O    -0.340000000     2.256000000    -4.405000000
H    -0.498000000     1.313000000    -4.357000000
H    -1.103000000     2.603000000    -4.867000000
O    -1.671000000     2.829000000     3.658000000
H    -2.222000000     2.946000000     2.885000000
H    -2.102000000     2.135000000     4.157000000
O    -2.762000000     1.493000000    -0.905000000
H    -2.626000000     1.318000000    -1.836000000
H    -1.922000000     1.284000000    -0.497000000
O     2.220000000    -5.639000000    -3.762000000
H     1.575000000    -5.601000000    -4.468000000
H     1.948000000    -6.387000000    -3.230000000
O    -3.471000000    -0.628000000     1.877000000
H    -3.844000000    -0.049000000     2.542000000
H    -2.538000000    -0.662000000     2.086000000
O     5.174000000    -1.704000000     4.444000000
H     4.348000000    -1.238000000     4.308000000
H     5.407000000    -2.036000000     3.577000000
O     0.188000000    -1.160000000    -6.069000000
H     0.857000000    -1.424000000    -5.438000000
H    -0.578000000    -0.951000000    -5.534000000
O    -4.559000000     1.432000000     4.389000000
H    -5.147000000     1.986000000     3.876000000
H    -5.091000000     1.140000000     5.129000000
O     3.369000000     0.577000000     1.549000000
H     3.469000000    -0.362000000     1.392000000
H     2.467000000     0.768000000     1.290000000
O     0.134000000    -5.590000000    -5.626000000
H    -0.040000000    -5.251000000    -6.504000000
H     0.507000000    -6.459000000    -5.775000000
O     4.826000000     2.136000000    -0.787000000
H     4.494000000     1.967000000     0.094000000
H     5.713000000     2.468000000    -0.649000000
O     3.798000000    -0.719000000    -4.738000000
H     3.689000000    -0.699000000    -5.689000000
H     3.163000000    -1.369000000    -4.438000000
O     0.742000000    -3.175000000     6.494000000
H     0.377000000    -4.021000000     6.234000000
H    -0.023000000    -2.625000000     6.664000000
O    -1.540000000     4.484000000     5.839000000
H    -1.176000000     5.203000000     5.324000000
H    -1.788000000     3.826000000     5.190000000
O     0.184000000     2.213000000     6.806000000
H     0.829000000     2.748000000     6.343000000
H    -0.662000000     2.566000000     6.531000000
O     0.662000000    -1.736000000    -8.845000000
H     0.743000000    -1.390000000    -7.956000000
H     0.337000000    -0.998000000    -9.360000000
