158
-3018.91928
C    -0.698000000    -1.336000000     0.035000000
H    -1.086000000    -2.347000000     0.126000000
C    -0.296000000    -0.575000000     1.153000000
H    -0.443000000    -1.083000000     2.102000000
C     0.319000000     0.683000000     1.041000000
H     0.589000000     1.249000000     1.901000000
C     0.539000000     1.167000000    -0.253000000
H     1.140000000     2.052000000    -0.445000000
C     0.094000000     0.459000000    -1.414000000
H     0.274000000     0.918000000    -2.383000000
C    -0.507000000    -0.821000000    -1.291000000
C    -0.935000000    -1.558000000    -2.544000000
O    -1.584000000    -2.551000000    -2.471000000
O    -0.617000000    -1.177000000    -3.610000000
O     4.265000000     1.291000000    -3.235000000
H     3.437000000     0.816000000    -3.163000000
H     4.076000000     2.014000000    -3.832000000
O    -1.368000000    -3.630000000     5.660000000
H    -2.053000000    -3.812000000     6.303000000
H    -0.875000000    -2.900000000     6.036000000
O     2.383000000     5.432000000    -0.093000000
H     3.010000000     4.712000000    -0.031000000
H     2.432000000     5.713000000    -1.007000000
O     2.697000000    -3.761000000    -1.066000000
H     3.165000000    -3.824000000    -0.233000000
H     2.223000000    -4.590000000    -1.137000000
O     4.642000000     3.786000000     1.263000000
H     4.931000000     2.997000000     1.720000000
H     5.145000000     3.789000000     0.448000000
O    -3.533000000    -0.055000000     0.850000000
H    -2.714000000     0.244000000     0.456000000
H    -3.297000000    -0.278000000     1.751000000
O    -3.140000000    -3.212000000     1.809000000
H    -3.291000000    -2.642000000     2.563000000
H    -3.335000000    -2.663000000     1.050000000
O    -4.253000000     0.549000000    -1.685000000
H    -4.020000000     1.293000000    -1.130000000
H    -4.077000000    -0.219000000    -1.142000000
O     1.109000000    -3.418000000     2.583000000
H     0.347000000    -3.755000000     2.111000000
H     1.351000000    -4.124000000     3.182000000
O     6.061000000     1.910000000     3.880000000
H     6.644000000     2.273000000     4.546000000
H     5.225000000     1.793000000     4.331000000
O    -6.306000000    -2.747000000    -0.050000000
H    -6.942000000    -3.461000000    -0.013000000
H    -5.587000000    -3.093000000    -0.577000000
O    -1.068000000    -4.963000000     1.416000000
H    -0.886000000    -5.134000000     0.491000000
H    -1.773000000    -4.316000000     1.405000000
O    -4.530000000    -5.463000000    -2.214000000
H    -5.433000000    -5.406000000    -2.526000000
H    -4.046000000    -5.840000000    -2.948000000
O     3.913000000     5.218000000     3.382000000
H     4.583000000     5.079000000     4.052000000
H     4.318000000     4.910000000     2.571000000
O    -3.892000000    -3.120000000    -1.253000000
H    -3.117000000    -2.780000000    -1.699000000
H    -4.015000000    -3.996000000    -1.619000000
O    -0.414000000    -2.132000000    -6.261000000
H     0.506000000    -1.965000000    -6.469000000
H    -0.462000000    -2.050000000    -5.308000000
O    -0.677000000    -4.929000000    -1.365000000
H    -1.081000000    -4.075000000    -1.520000000
H    -1.047000000    -5.495000000    -2.042000000
O    -4.732000000    -5.556000000     1.017000000
H    -4.100000000    -5.099000000     1.571000000
H    -4.389000000    -5.455000000     0.129000000
O    -1.861000000    -0.520000000    -8.195000000
H    -1.485000000    -0.753000000    -9.044000000
H    -1.329000000    -0.996000000    -7.558000000
O     0.822000000    -2.078000000     6.976000000
H     0.399000000    -1.397000000     7.499000000
H     1.386000000    -1.598000000     6.369000000
O    -3.145000000     2.764000000    -0.384000000
H    -3.351000000     3.698000000    -0.327000000
H    -2.541000000     2.696000000    -1.123000000
O     5.177000000    -1.383000000     0.571000000
H     4.408000000    -1.124000000     0.063000000
H     4.834000000    -1.576000000     1.444000000
O    -4.166000000     0.979000000    -4.291000000
H    -3.413000000     0.491000000    -4.624000000
H    -4.124000000     0.865000000    -3.341000000
O     3.408000000    -1.273000000    -5.966000000
H     4.155000000    -1.815000000    -6.220000000
H     3.113000000    -1.647000000    -5.135000000
O    -2.568000000    -4.370000000    -5.704000000
H    -2.888000000    -5.159000000    -5.267000000
H    -2.813000000    -4.489000000    -6.622000000
O    -3.109000000     0.017000000     6.222000000
H    -3.752000000    -0.173000000     5.538000000
H    -2.410000000     0.489000000     5.769000000
O    -0.973000000     4.698000000     5.393000000
H    -1.606000000     5.169000000     4.851000000
H    -1.482000000     3.999000000     5.804000000
O     1.820000000    -6.056000000     0.864000000
H     1.184000000    -5.516000000     1.333000000
H     2.398000000    -6.394000000     1.548000000
O     0.769000000    -4.408000000    -4.306000000
H     0.686000000    -4.112000000    -3.399000000
H    -0.014000000    -4.068000000    -4.740000000
O     1.850000000     3.568000000     2.713000000
H     1.138000000     3.977000000     2.222000000
H     2.559000000     4.211000000     2.688000000
O    -4.468000000    -1.506000000    -7.241000000
H    -3.980000000    -1.599000000    -6.424000000
H    -4.095000000    -0.728000000    -7.656000000
O    -3.244000000    -1.800000000    -4.851000000
H    -2.956000000    -2.590000000    -5.308000000
H    -2.742000000    -1.798000000    -4.036000000
O    -0.726000000     4.772000000     2.125000000
H    -1.201000000     3.943000000     2.179000000
H    -0.482000000     4.849000000     1.203000000
O     1.538000000     6.546000000     3.767000000
H     2.368000000     6.087000000     3.638000000
H     0.903000000     5.850000000     3.934000000
O    -2.605000000     2.787000000     2.508000000
H    -3.401000000     2.841000000     3.036000000
H    -2.919000000     2.707000000     1.608000000
O    -1.492000000     0.645000000    -5.254000000
H    -1.346000000     0.307000000    -6.137000000
H    -1.173000000    -0.048000000    -4.676000000
O    -1.956000000     2.791000000    -2.752000000
H    -1.657000000     2.303000000    -3.519000000
H    -2.490000000     3.500000000    -3.111000000
O    -2.415000000    -5.486000000     3.779000000
H    -1.908000000    -5.237000000     3.007000000
H    -2.140000000    -4.869000000     4.457000000
O    -1.023000000     5.183000000    -0.640000000
H    -1.280000000     4.430000000    -1.172000000
H    -0.934000000     5.900000000    -1.268000000
O     3.617000000    -3.035000000     4.940000000
H     4.355000000    -2.908000000     5.536000000
H     3.096000000    -2.237000000     5.031000000
O    -0.940000000     0.929000000     4.328000000
H    -1.396000000     1.754000000     4.161000000
H    -0.061000000     1.065000000     3.974000000
O     2.713000000    -0.981000000     2.468000000
H     2.555000000    -0.651000000     1.583000000
H     2.306000000    -1.847000000     2.476000000
O     2.606000000    -0.921000000    -0.527000000
H     2.376000000    -1.753000000    -0.941000000
H     1.801000000    -0.404000000    -0.565000000
O     1.933000000    -0.269000000    -3.771000000
H     2.499000000    -1.001000000    -3.524000000
H     1.044000000    -0.616000000    -3.693000000
O     2.326000000     2.088000000     4.991000000
H     2.945000000     2.706000000     5.380000000
H     2.201000000     2.405000000     4.097000000
O     2.145000000    -0.645000000     5.088000000
H     2.428000000    -0.665000000     4.174000000
H     2.146000000     0.284000000     5.319000000
O     1.479000000     1.141000000    -6.777000000
H     1.666000000     1.868000000    -6.182000000
H     1.856000000     0.375000000    -6.345000000
O     3.259000000    -2.544000000    -3.467000000
H     4.072000000    -2.993000000    -3.697000000
H     2.922000000    -3.029000000    -2.714000000
