158
-3010.00229
C    -0.727000000    -1.256000000    -0.214000000
H    -1.355000000    -2.129000000    -0.369000000
C    -1.254000000    -0.063000000     0.200000000
H    -2.333000000     0.051000000     0.265000000
C    -0.483000000     1.069000000     0.392000000
H    -0.833000000     2.102000000     0.596000000
C     0.860000000     1.003000000     0.108000000
H     1.460000000     1.891000000     0.293000000
C     1.477000000    -0.208000000    -0.288000000
H     2.531000000    -0.368000000    -0.501000000
C     0.625000000    -1.318000000    -0.448000000
C     1.198000000    -2.601000000    -0.985000000
O     0.527000000    -3.609000000    -1.206000000
O     2.402000000    -2.724000000    -1.202000000
O     1.504000000     5.927000000     3.666000000
H     1.804000000     6.066000000     4.565000000
H     1.530000000     4.977000000     3.549000000
O    -2.639000000     4.902000000    -3.335000000
H    -2.140000000     5.705000000    -3.183000000
H    -3.353000000     5.170000000    -3.913000000
O    -5.289000000    -0.534000000    -0.704000000
H    -5.355000000     0.160000000    -1.360000000
H    -5.805000000    -0.214000000     0.035000000
O     1.438000000     1.286000000     5.009000000
H     1.376000000     2.070000000     4.463000000
H     1.222000000     0.564000000     4.418000000
O     3.255000000    -3.519000000    -5.310000000
H     2.388000000    -3.787000000    -5.611000000
H     3.538000000    -4.227000000    -4.732000000
O     3.406000000     4.630000000    -1.798000000
H     4.146000000     5.139000000    -2.128000000
H     2.912000000     5.247000000    -1.259000000
O     3.918000000    -6.584000000     1.409000000
H     3.763000000    -6.067000000     2.200000000
H     4.099000000    -5.934000000     0.730000000
O    -4.061000000    -4.036000000    -0.304000000
H    -3.430000000    -3.984000000    -1.021000000
H    -3.711000000    -4.714000000     0.275000000
O     1.346000000     4.169000000    -3.439000000
H     2.077000000     4.287000000    -2.832000000
H     0.677000000     3.719000000    -2.923000000
O    -4.720000000    -5.028000000     2.708000000
H    -4.530000000    -4.568000000     3.526000000
H    -4.606000000    -4.365000000     2.028000000
O     2.795000000     0.050000000     2.675000000
H     3.019000000     0.675000000     1.986000000
H     1.954000000    -0.317000000     2.402000000
O    -0.916000000    -2.379000000    -3.769000000
H    -0.304000000    -3.055000000    -4.059000000
H    -1.585000000    -2.856000000    -3.277000000
O     2.845000000    -4.679000000     2.794000000
H     3.350000000    -3.874000000     2.682000000
H     1.983000000    -4.475000000     2.430000000
O     0.914000000    -5.782000000    -2.431000000
H     0.751000000    -5.026000000    -1.866000000
H     0.499000000    -5.552000000    -3.263000000
O     0.455000000    -4.395000000    -4.881000000
H    -0.376000000    -4.290000000    -5.344000000
H     0.931000000    -5.052000000    -5.390000000
O    -4.001000000    -2.319000000     3.473000000
H    -3.057000000    -2.476000000     3.462000000
H    -4.085000000    -1.373000000     3.593000000
O    -1.571000000    -6.142000000     0.707000000
H    -1.522000000    -6.833000000     0.047000000
H    -2.101000000    -6.518000000     1.410000000
O    -1.841000000    -4.664000000    -2.063000000
H    -1.117000000    -4.345000000    -1.523000000
H    -1.704000000    -5.610000000    -2.113000000
O    -4.183000000     3.502000000    -0.871000000
H    -4.847000000     4.160000000    -1.081000000
H    -4.373000000     2.774000000    -1.462000000
O     6.304000000     1.590000000    -2.507000000
H     6.595000000     2.479000000    -2.304000000
H     5.487000000     1.488000000    -2.018000000
O    -4.351000000     0.483000000     3.957000000
H    -4.591000000     1.220000000     3.396000000
H    -4.973000000     0.523000000     4.684000000
O     1.460000000     3.174000000     2.923000000
H     0.635000000     2.907000000     2.518000000
H     2.132000000     2.911000000     2.294000000
O     6.348000000    -1.304000000     1.746000000
H     6.233000000    -0.407000000     1.431000000
H     6.753000000    -1.205000000     2.607000000
O    -4.013000000     5.795000000     3.433000000
H    -3.731000000     4.981000000     3.016000000
H    -4.967000000     5.733000000     3.458000000
O     3.556000000    -4.836000000    -2.913000000
H     3.248000000    -4.284000000    -2.194000000
H     2.820000000    -5.418000000    -3.101000000
O    -5.301000000     3.435000000     4.648000000
H    -5.215000000     2.980000000     3.810000000
H    -6.223000000     3.330000000     4.884000000
O    -1.631000000     4.928000000     6.055000000
H    -1.205000000     4.160000000     6.436000000
H    -1.620000000     4.764000000     5.112000000
O     3.666000000     1.982000000    -1.479000000
H     3.563000000     2.884000000    -1.781000000
H     3.288000000     1.450000000    -2.180000000
O     0.193000000     0.544000000    -3.056000000
H    -0.428000000    -0.055000000    -2.640000000
H     0.624000000     0.988000000    -2.325000000
O    -2.026000000     6.848000000     1.426000000
H    -2.410000000     6.454000000     2.209000000
H    -1.545000000     7.609000000     1.751000000
O    -3.574000000    -1.703000000    -2.565000000
H    -3.356000000    -1.001000000    -3.178000000
H    -4.196000000    -1.305000000    -1.956000000
O    -2.884000000     4.045000000     1.382000000
H    -2.544000000     4.916000000     1.179000000
H    -3.222000000     3.719000000     0.548000000
O     2.981000000     0.296000000    -3.783000000
H     3.525000000    -0.453000000    -3.538000000
H     2.086000000    -0.043000000    -3.767000000
O     4.311000000    -1.878000000    -2.929000000
H     3.645000000    -2.186000000    -2.314000000
H     4.203000000    -2.438000000    -3.698000000
O    -5.005000000     1.661000000    -2.731000000
H    -4.470000000     1.975000000    -3.460000000
H    -5.893000000     1.618000000    -3.087000000
O    -0.845000000     3.464000000    -2.079000000
H    -1.653000000     3.929000000    -2.296000000
H    -1.136000000     2.687000000    -1.603000000
O    -4.351000000    -4.152000000    -3.724000000
H    -4.708000000    -3.572000000    -4.398000000
H    -3.892000000    -3.565000000    -3.123000000
O     4.122000000    -2.424000000     2.646000000
H     4.902000000    -2.139000000     2.170000000
H     3.742000000    -1.616000000     2.990000000
O    -1.916000000     0.276000000     5.204000000
H    -2.836000000     0.505000000     5.075000000
H    -1.745000000     0.476000000     6.124000000
O     6.718000000    -3.993000000    -0.997000000
H     6.109000000    -3.517000000    -0.432000000
H     6.284000000    -4.830000000    -1.166000000
O    -5.104000000     2.299000000     2.155000000
H    -5.914000000     2.436000000     1.665000000
H    -4.452000000     2.823000000     1.690000000
O     0.945000000    -7.673000000    -0.144000000
H     1.283000000    -7.195000000    -0.901000000
H     0.955000000    -7.032000000     0.567000000
O    -1.603000000     2.831000000     3.342000000
H    -2.127000000     2.045000000     3.496000000
H    -2.133000000     3.358000000     2.744000000
O     0.443000000    -1.019000000     2.918000000
H    -0.346000000    -0.571000000     2.612000000
H     0.171000000    -1.930000000     3.033000000
O     5.788000000    -6.623000000    -2.083000000
H     5.398000000    -7.160000000    -1.394000000
H     5.040000000    -6.261000000    -2.557000000
O     4.291000000    -4.111000000     0.356000000
H     3.595000000    -3.750000000    -0.194000000
H     4.414000000    -3.458000000     1.045000000
O     3.822000000     2.233000000     1.231000000
H     3.760000000     2.059000000     0.292000000
H     4.625000000     2.745000000     1.328000000
O     0.704000000    -4.506000000     1.219000000
H    -0.093000000    -5.020000000     1.349000000
H     0.625000000    -4.161000000     0.329000000
