158
-3034.32519
C    -0.601000000    -1.396000000     0.114000000
H    -1.115000000    -2.335000000     0.302000000
C    -0.716000000    -0.395000000     1.100000000
H    -1.356000000    -0.517000000     1.970000000
C    -0.009000000     0.841000000     0.937000000
H    -0.095000000     1.648000000     1.700000000
C     0.660000000     1.039000000    -0.331000000
H     1.007000000     2.047000000    -0.542000000
C     0.765000000     0.050000000    -1.308000000
H     1.205000000     0.405000000    -2.236000000
C     0.095000000    -1.163000000    -1.137000000
C     0.219000000    -2.165000000    -2.222000000
O    -0.614000000    -3.145000000    -2.251000000
O     1.241000000    -2.204000000    -2.869000000
O     5.052000000    -1.754000000    -0.956000000
H     5.083000000    -1.554000000    -1.892000000
H     5.049000000    -0.898000000    -0.529000000
O    -4.006000000    -2.743000000     4.238000000
H    -4.279000000    -3.435000000     4.841000000
H    -3.304000000    -3.138000000     3.722000000
O     0.046000000     1.233000000     7.637000000
H    -0.214000000     2.110000000     7.355000000
H     0.942000000     1.339000000     7.956000000
O    -1.671000000     3.310000000     2.527000000
H    -2.348000000     2.984000000     1.935000000
H    -2.132000000     3.917000000     3.106000000
O     0.740000000     3.814000000    -5.654000000
H     1.273000000     3.039000000    -5.832000000
H     0.687000000     3.854000000    -4.699000000
O     5.655000000     0.906000000     0.356000000
H     4.838000000     1.125000000    -0.092000000
H     5.616000000     1.394000000     1.178000000
O    -5.111000000     1.042000000     1.962000000
H    -4.766000000     1.919000000     2.128000000
H    -5.666000000     0.856000000     2.719000000
O    -2.875000000    -0.997000000    -6.264000000
H    -2.106000000    -1.559000000    -6.362000000
H    -2.517000000    -0.114000000    -6.174000000
O     0.759000000     4.453000000     3.269000000
H     1.478000000     3.905000000     2.954000000
H    -0.032000000     4.016000000     2.955000000
O     0.921000000     6.014000000    -0.759000000
H     1.821000000     6.063000000    -1.084000000
H     0.631000000     6.925000000    -0.718000000
O     1.554000000    -2.211000000     4.903000000
H     0.745000000    -2.577000000     4.543000000
H     1.402000000    -2.176000000     5.847000000
O     0.594000000    -4.191000000     1.028000000
H     0.620000000    -3.599000000     0.277000000
H     0.440000000    -5.055000000     0.648000000
O    -2.400000000     1.088000000    -0.893000000
H    -2.855000000     0.329000000    -1.256000000
H    -1.613000000     0.724000000    -0.487000000
O     3.447000000    -4.488000000     1.677000000
H     3.380000000    -4.581000000     2.627000000
H     2.542000000    -4.397000000     1.381000000
O     0.571000000     4.255000000    -2.758000000
H     0.681000000     4.830000000    -2.001000000
H    -0.317000000     3.908000000    -2.668000000
O    -0.969000000    -5.623000000    -1.717000000
H    -1.148000000    -4.692000000    -1.848000000
H    -0.197000000    -5.797000000    -2.256000000
O     2.350000000     2.950000000     5.721000000
H     2.990000000     2.667000000     5.067000000
H     1.788000000     3.567000000     5.253000000
O    -0.765000000    -4.073000000     4.091000000
H    -1.138000000    -4.899000000     4.398000000
H    -0.572000000    -4.226000000     3.166000000
O     1.693000000    -3.209000000    -5.084000000
H     1.625000000    -2.755000000    -4.245000000
H     0.797000000    -3.483000000    -5.282000000
O     3.245000000     6.297000000     3.586000000
H     2.930000000     5.554000000     3.072000000
H     4.125000000     6.041000000     3.862000000
O    -1.157000000    -3.853000000    -4.877000000
H    -0.946000000    -3.487000000    -4.018000000
H    -1.856000000    -4.484000000    -4.704000000
O    -2.339000000    -6.317000000    -4.425000000
H    -2.897000000    -6.644000000    -5.129000000
H    -2.768000000    -6.612000000    -3.622000000
O    -4.446000000    -1.340000000     0.673000000
H    -4.429000000    -0.475000000     1.083000000
H    -5.005000000    -1.865000000     1.246000000
O     4.560000000     2.272000000     4.348000000
H     4.309000000     1.360000000     4.198000000
H     5.482000000     2.311000000     4.094000000
O    -3.879000000    -6.195000000    -1.511000000
H    -2.933000000    -6.052000000    -1.507000000
H    -4.008000000    -6.965000000    -0.958000000
O     5.417000000     2.133000000    -3.511000000
H     5.757000000     1.266000000    -3.731000000
H     4.939000000     2.002000000    -2.692000000
O    -2.923000000     4.512000000     4.844000000
H    -2.791000000     3.606000000     5.124000000
H    -3.236000000     4.962000000     5.629000000
O     4.185000000     2.984000000    -0.575000000
H     5.107000000     3.234000000    -0.644000000
H     3.745000000     3.505000000    -1.246000000
O    -1.980000000     3.238000000    -2.551000000
H    -2.904000000     3.317000000    -2.785000000
H    -1.953000000     2.519000000    -1.920000000
O     1.493000000    -5.076000000    -2.585000000
H     1.440000000    -4.132000000    -2.734000000
H     2.429000000    -5.252000000    -2.490000000
O    -0.688000000     6.589000000     4.042000000
H     0.013000000     5.980000000     3.809000000
H    -1.333000000     6.050000000     4.498000000
O     3.182000000     3.855000000    -2.787000000
H     2.253000000     4.080000000    -2.740000000
H     3.489000000     4.275000000    -3.591000000
O    -3.049000000    -1.595000000    -1.703000000
H    -2.372000000    -2.270000000    -1.665000000
H    -3.456000000    -1.615000000    -0.837000000
O     1.112000000     0.995000000    -5.487000000
H     1.556000000     0.759000000    -6.301000000
H     1.664000000     0.625000000    -4.798000000
O     0.286000000    -7.182000000    -4.199000000
H    -0.659000000    -7.030000000    -4.166000000
H     0.670000000    -6.381000000    -3.845000000
O     3.978000000    -1.094000000     4.092000000
H     4.235000000    -1.821000000     3.525000000
H     3.057000000    -1.262000000     4.294000000
O    -1.698000000     1.667000000    -6.232000000
H    -2.241000000     2.411000000    -5.970000000
H    -0.984000000     1.657000000    -5.595000000
O     2.885000000    -0.525000000    -3.994000000
H     3.786000000    -0.836000000    -3.904000000
H     2.360000000    -1.171000000    -3.521000000
O    -3.151000000    -0.607000000     6.067000000
H    -3.496000000    -1.120000000     5.336000000
H    -2.506000000    -1.181000000     6.479000000
O     5.575000000    -1.051000000    -3.681000000
H     6.444000000    -0.701000000    -3.873000000
H     5.643000000    -1.985000000    -3.881000000
O    -4.455000000     3.765000000     2.632000000
H    -5.039000000     4.433000000     2.272000000
H    -4.284000000     4.054000000     3.528000000
O     0.340000000    -6.820000000     0.519000000
H     0.955000000    -7.223000000    -0.093000000
H    -0.495000000    -6.816000000     0.051000000
O    -3.470000000     2.002000000     5.514000000
H    -4.123000000     2.050000000     4.816000000
H    -3.265000000     1.070000000     5.586000000
O     3.251000000     3.879000000     2.097000000
H     3.280000000     3.504000000     1.216000000
H     4.046000000     3.556000000     2.521000000
O    -4.349000000    -0.689000000    -3.979000000
H    -3.771000000    -0.986000000    -3.276000000
H    -3.812000000    -0.744000000    -4.769000000
O    -1.613000000     5.420000000     0.319000000
H    -0.721000000     5.755000000     0.226000000
H    -1.530000000     4.681000000     0.920000000
O     3.324000000    -2.655000000    -7.050000000
H     2.750000000    -1.952000000    -7.353000000
H     2.981000000    -2.889000000    -6.187000000
O     5.241000000    -3.793000000    -3.892000000
H     5.650000000    -4.404000000    -3.278000000
H     4.950000000    -4.344000000    -4.619000000
