158
-3014.52984
C    -0.599000000    -0.940000000    -1.012000000
H    -1.071000000    -1.431000000    -1.860000000
C    -1.092000000     0.303000000    -0.690000000
H    -1.866000000     0.815000000    -1.256000000
C    -0.576000000     0.995000000     0.398000000
H    -0.853000000     1.998000000     0.639000000
C     0.571000000     0.556000000     1.038000000
H     0.938000000     1.181000000     1.848000000
C     1.159000000    -0.651000000     0.686000000
H     2.026000000    -1.059000000     1.199000000
C     0.590000000    -1.405000000    -0.377000000
C     1.293000000    -2.625000000    -0.991000000
O     0.866000000    -3.161000000    -1.981000000
O     2.446000000    -2.827000000    -0.688000000
O     1.742000000    -0.179000000     5.406000000
H     1.281000000     0.652000000     5.288000000
H     1.324000000    -0.579000000     6.169000000
O     2.404000000     2.849000000    -0.189000000
H     1.670000000     2.486000000    -0.685000000
H     2.266000000     3.796000000    -0.216000000
O    -4.158000000    -4.113000000    -4.294000000
H    -3.556000000    -3.435000000    -3.988000000
H    -5.014000000    -3.839000000    -3.967000000
O    -4.673000000    -1.605000000    -1.865000000
H    -4.530000000    -1.952000000    -0.985000000
H    -4.886000000    -0.682000000    -1.727000000
O     4.574000000    -2.804000000    -5.656000000
H     3.954000000    -2.757000000    -6.384000000
H     4.031000000    -2.708000000    -4.873000000
O     1.806000000     3.753000000     4.380000000
H     1.787000000     3.409000000     3.487000000
H     1.412000000     3.061000000     4.912000000
O    -4.046000000    -2.540000000     0.665000000
H    -4.816000000    -2.178000000     1.102000000
H    -4.327000000    -3.402000000     0.358000000
O     0.816000000     3.163000000    -2.371000000
H     0.010000000     3.677000000    -2.321000000
H     1.475000000     3.781000000    -2.688000000
O    -4.588000000     5.535000000     3.226000000
H    -3.759000000     5.081000000     3.082000000
H    -4.676000000     6.119000000     2.473000000
O     5.693000000    -5.724000000    -0.354000000
H     5.546000000    -6.650000000    -0.548000000
H     4.936000000    -5.467000000     0.173000000
O     3.760000000     1.434000000     1.956000000
H     3.202000000     1.940000000     1.365000000
H     4.635000000     1.802000000     1.833000000
O    -0.755000000    -4.333000000    -3.847000000
H    -0.191000000    -4.006000000    -3.146000000
H    -1.094000000    -3.544000000    -4.270000000
O    -2.766000000    -5.757000000    -2.113000000
H    -3.051000000    -6.636000000    -2.365000000
H    -2.824000000    -5.246000000    -2.920000000
O     1.796000000    -2.473000000    -4.479000000
H     1.673000000    -2.616000000    -3.541000000
H     1.070000000    -1.903000000    -4.732000000
O    -3.821000000     2.340000000     5.044000000
H    -4.262000000     3.060000000     5.495000000
H    -4.534000000     1.787000000     4.722000000
O    -1.390000000    -3.285000000     1.139000000
H    -0.809000000    -2.710000000     1.639000000
H    -2.260000000    -2.903000000     1.252000000
O     4.448000000    -0.350000000     4.118000000
H     4.055000000     0.217000000     3.454000000
H     3.791000000    -0.396000000     4.813000000
O    -4.047000000     2.129000000    -0.006000000
H    -4.448000000     1.557000000    -0.661000000
H    -3.999000000     1.592000000     0.784000000
O     2.388000000    -5.181000000    -3.963000000
H     2.137000000    -4.257000000    -3.946000000
H     1.601000000    -5.648000000    -3.681000000
O    -1.508000000    -0.395000000     2.965000000
H    -1.045000000    -0.365000000     2.129000000
H    -0.891000000    -0.812000000     3.566000000
O    -1.307000000     2.350000000     4.001000000
H    -1.164000000     1.613000000     3.407000000
H    -2.147000000     2.161000000     4.419000000
O     1.812000000    -6.382000000     1.512000000
H     1.743000000    -6.184000000     0.578000000
H     2.548000000    -5.850000000     1.816000000
O     1.759000000    -5.945000000    -1.336000000
H     1.951000000    -5.145000000    -1.825000000
H     0.880000000    -5.805000000    -0.983000000
O     1.330000000     0.500000000    -2.870000000
H     2.218000000     0.408000000    -2.524000000
H     1.044000000     1.363000000    -2.571000000
O    -1.089000000     0.413000000    -4.158000000
H    -0.896000000     1.172000000    -4.709000000
H    -0.364000000     0.380000000    -3.534000000
O    -0.573000000     4.755000000     0.733000000
H     0.261000000     5.076000000     0.390000000
H    -1.201000000     4.919000000     0.029000000
O    -3.798000000     1.420000000    -4.613000000
H    -3.782000000     0.841000000    -5.375000000
H    -2.915000000     1.359000000    -4.248000000
O    -2.533000000    -1.910000000    -3.991000000
H    -1.903000000    -1.190000000    -3.962000000
H    -3.005000000    -1.848000000    -3.160000000
O    -2.108000000     4.791000000     2.991000000
H    -1.969000000     3.908000000     3.335000000
H    -1.596000000     4.816000000     2.182000000
O     5.641000000    -0.588000000     0.548000000
H     5.024000000    -0.220000000    -0.085000000
H     5.122000000    -1.218000000     1.049000000
O     4.102000000     1.885000000    -2.080000000
H     3.864000000     0.960000000    -2.025000000
H     3.812000000     2.256000000    -1.246000000
O    -4.147000000    -1.172000000    -5.960000000
H    -3.828000000    -1.630000000    -5.182000000
H    -5.098000000    -1.278000000    -5.927000000
O     3.737000000    -0.938000000    -2.045000000
H     4.634000000    -1.255000000    -1.942000000
H     3.191000000    -1.708000000    -1.888000000
O    -1.478000000     7.120000000    -2.019000000
H    -0.548000000     6.985000000    -2.201000000
H    -1.864000000     6.246000000    -2.080000000
O    -5.216000000     1.186000000    -2.310000000
H    -4.857000000     1.183000000    -3.197000000
H    -6.068000000     1.614000000    -2.397000000
O    -2.317000000     4.362000000    -1.473000000
H    -2.494000000     4.228000000    -2.404000000
H    -2.795000000     3.657000000    -1.035000000
O    -6.364000000     3.459000000     0.956000000
H    -6.753000000     3.630000000     0.098000000
H    -5.539000000     3.014000000     0.761000000
O     5.089000000    -2.547000000     2.718000000
H     5.868000000    -2.942000000     3.110000000
H     4.978000000    -1.720000000     3.187000000
O     5.903000000    -3.168000000    -2.013000000
H     5.770000000    -3.902000000    -2.613000000
H     5.811000000    -3.551000000    -1.141000000
O    -4.210000000     0.304000000     2.201000000
H    -4.765000000     0.046000000     2.937000000
H    -3.322000000     0.084000000     2.482000000
O     0.436000000    -2.472000000     3.763000000
H    -0.374000000    -2.796000000     4.156000000
H     1.131000000    -2.935000000     4.232000000
O     5.368000000    -5.383000000    -3.391000000
H     5.733000000    -6.263000000    -3.487000000
H     4.421000000    -5.510000000    -3.445000000
O     3.775000000    -4.507000000     1.058000000
H     3.409000000    -3.876000000     0.439000000
H     4.260000000    -3.973000000     1.687000000
O     0.177000000    -4.473000000    -6.676000000
H    -0.776000000    -4.452000000    -6.768000000
H     0.380000000    -3.722000000    -6.118000000
O     1.933000000     5.601000000    -0.108000000
H     1.890000000     6.330000000    -0.727000000
H     2.857000000     5.551000000     0.139000000
O    -4.896000000     5.911000000    -1.419000000
H    -5.066000000     6.222000000    -2.309000000
H    -4.182000000     5.281000000    -1.518000000
O    -0.321000000    -1.440000000    -6.090000000
H    -0.750000000    -0.679000000    -5.700000000
H    -0.181000000    -1.194000000    -7.005000000
O    -0.473000000    -5.364000000    -0.482000000
H    -1.149000000    -5.318000000    -1.158000000
H    -0.635000000    -4.600000000     0.072000000
