158
-3009.79062
C    -0.224000000    -0.395000000    -1.394000000
H    -0.425000000    -0.679000000    -2.423000000
C    -0.940000000     0.521000000    -0.699000000
H    -1.759000000     1.074000000    -1.152000000
C    -0.622000000     0.878000000     0.594000000
H    -1.086000000     1.683000000     1.218000000
C     0.461000000     0.264000000     1.157000000
H     0.704000000     0.639000000     2.148000000
C     1.237000000    -0.667000000     0.440000000
H     2.139000000    -1.010000000     0.941000000
C     0.920000000    -1.019000000    -0.849000000
C     1.587000000    -2.184000000    -1.516000000
O     1.206000000    -2.426000000    -2.683000000
O     2.397000000    -2.931000000    -0.911000000
O     1.710000000     3.770000000     1.057000000
H     1.389000000     4.412000000     0.424000000
H     1.184000000     3.923000000     1.841000000
O    -3.326000000    -3.676000000    -4.094000000
H    -2.469000000    -3.296000000    -4.288000000
H    -3.951000000    -2.989000000    -4.328000000
O    -3.771000000    -0.315000000    -3.097000000
H    -3.537000000    -0.568000000    -2.204000000
H    -4.041000000     0.600000000    -3.024000000
O     4.293000000    -0.824000000    -6.620000000
H     4.017000000    -0.952000000    -7.528000000
H     3.476000000    -0.822000000    -6.121000000
O     0.058000000     2.844000000     3.822000000
H    -0.313000000     3.448000000     3.179000000
H    -0.703000000     2.435000000     4.234000000
O    -0.184000000     5.455000000    -3.524000000
H    -0.183000000     4.568000000    -3.165000000
H     0.513000000     5.448000000    -4.181000000
O    -0.459000000     7.176000000     0.679000000
H    -0.166000000     6.640000000    -0.058000000
H    -1.311000000     7.516000000     0.404000000
O    -3.999000000    -2.072000000     3.281000000
H    -3.601000000    -2.888000000     2.976000000
H    -3.831000000    -2.061000000     4.223000000
O     2.198000000    -7.547000000    -2.463000000
H     1.913000000    -6.660000000    -2.244000000
H     1.390000000    -8.011000000    -2.683000000
O     1.281000000     2.838000000    -1.358000000
H     1.655000000     3.167000000    -0.540000000
H     0.772000000     2.071000000    -1.097000000
O    -4.572000000    -0.180000000    -0.172000000
H    -4.258000000     0.091000000     0.690000000
H    -5.111000000    -0.953000000     0.002000000
O     4.127000000     1.953000000     0.937000000
H     3.322000000     2.471000000     0.909000000
H     4.316000000     1.857000000     1.871000000
O    -0.810000000    -3.081000000    -4.221000000
H    -0.112000000    -3.086000000    -3.566000000
H    -0.440000000    -2.599000000    -4.961000000
O    -1.816000000    -3.113000000    -0.289000000
H    -2.010000000    -2.836000000    -1.185000000
H    -1.472000000    -2.327000000     0.135000000
O     2.009000000    -1.204000000    -4.971000000
H     1.674000000    -1.255000000    -4.076000000
H     1.229000000    -1.079000000    -5.512000000
O     2.681000000     2.842000000     4.962000000
H     3.415000000     3.084000000     4.398000000
H     2.063000000     2.404000000     4.376000000
O     0.836000000    -4.542000000     2.346000000
H     1.728000000    -4.217000000     2.221000000
H     0.312000000    -3.753000000     2.484000000
O     0.233000000    -6.912000000    -4.458000000
H    -0.663000000    -6.734000000    -4.744000000
H     0.482000000    -6.139000000    -3.953000000
O     3.418000000    -1.348000000     3.762000000
H     3.848000000    -1.695000000     4.544000000
H     2.620000000    -0.935000000     4.091000000
O    -3.316000000     3.215000000     0.883000000
H    -3.866000000     3.015000000     0.125000000
H    -3.179000000     2.369000000     1.309000000
O     2.781000000    -3.845000000    -4.230000000
H     2.226000000    -3.580000000    -3.496000000
H     2.648000000    -3.163000000    -4.888000000
O    -4.960000000     2.307000000     4.111000000
H    -5.806000000     2.409000000     3.675000000
H    -5.148000000     2.457000000     5.037000000
O    -0.694000000    -2.167000000     2.849000000
H    -1.006000000    -1.592000000     2.151000000
H    -0.482000000    -1.575000000     3.571000000
O    -2.158000000     1.524000000     4.689000000
H    -2.503000000     1.367000000     5.568000000
H    -2.614000000     2.311000000     4.389000000
O     5.592000000     0.517000000     4.728000000
H     4.889000000     0.270000000     4.127000000
H     5.502000000     1.465000000     4.827000000
O     3.476000000    -6.653000000     2.610000000
H     3.378000000    -5.737000000     2.351000000
H     4.172000000    -6.644000000     3.266000000
O     0.966000000    -5.173000000    -2.268000000
H     1.325000000    -4.291000000    -2.372000000
H     0.250000000    -5.068000000    -1.642000000
O     2.808000000     2.436000000    -3.715000000
H     3.404000000     1.805000000    -3.311000000
H     2.172000000     2.638000000    -3.029000000
O    -1.255000000     4.782000000     2.178000000
H    -1.075000000     5.662000000     1.847000000
H    -2.094000000     4.545000000     1.782000000
O    -4.599000000     2.244000000    -4.060000000
H    -5.495000000     2.129000000    -4.374000000
H    -4.112000000     2.540000000    -4.829000000
O    -2.927000000    -1.006000000    -5.634000000
H    -3.761000000    -0.927000000    -6.096000000
H    -3.051000000    -0.504000000    -4.828000000
O    -3.658000000     6.130000000     3.740000000
H    -2.975000000     5.621000000     4.177000000
H    -4.115000000     5.494000000     3.189000000
O     6.777000000    -1.319000000    -0.232000000
H     6.342000000    -1.972000000    -0.780000000
H     6.491000000    -1.525000000     0.658000000
O     4.595000000     1.226000000    -1.846000000
H     4.526000000     0.289000000    -2.027000000
H     4.361000000     1.309000000    -0.921000000
O     4.203000000    -0.978000000    -3.101000000
H     3.598000000    -1.079000000    -3.836000000
H     4.433000000    -1.874000000    -2.855000000
O     1.054000000     5.566000000    -0.835000000
H     1.897000000     5.973000000    -1.038000000
H     0.570000000     5.595000000    -1.660000000
O    -4.954000000     2.876000000    -1.279000000
H    -4.334000000     2.548000000    -1.931000000
H    -5.655000000     3.275000000    -1.795000000
O    -2.266000000     5.238000000    -0.867000000
H    -2.850000000     5.350000000    -1.617000000
H    -2.328000000     4.308000000    -0.650000000
O    -5.270000000     5.140000000     1.797000000
H    -5.901000000     5.254000000     1.086000000
H    -4.594000000     4.571000000     1.428000000
O     5.828000000    -2.006000000     2.045000000
H     6.079000000    -2.487000000     2.834000000
H     4.993000000    -1.596000000     2.271000000
O     5.062000000    -3.487000000    -1.239000000
H     5.158000000    -4.436000000    -1.156000000
H     4.138000000    -3.322000000    -1.053000000
O    -3.697000000     0.394000000     2.540000000
H    -3.785000000     1.004000000     3.273000000
H    -3.557000000    -0.458000000     2.953000000
O     0.786000000    -0.631000000     5.009000000
H     0.345000000    -0.154000000     5.712000000
H     1.152000000    -1.405000000     5.438000000
O     4.867000000    -6.058000000    -0.715000000
H     4.102000000    -6.577000000    -0.465000000
H     5.287000000    -6.569000000    -1.407000000
O     3.347000000    -3.989000000     1.434000000
H     3.123000000    -3.732000000     0.540000000
H     4.238000000    -3.663000000     1.561000000
O     1.319000000    -3.407000000    -7.293000000
H     0.559000000    -3.851000000    -7.670000000
H     0.971000000    -2.583000000    -6.952000000
O    -0.274000000    -1.185000000    -6.342000000
H    -1.228000000    -1.143000000    -6.280000000
H    -0.052000000    -0.564000000    -7.036000000
O    -0.344000000    -5.245000000    -0.035000000
H    -0.973000000    -4.524000000    -0.069000000
H     0.148000000    -5.096000000     0.773000000
