158
-3038.61896
C     0.073000000     0.489000000    -1.333000000
H     0.344000000     0.935000000    -2.287000000
C     0.811000000     1.001000000    -0.279000000
H     1.601000000     1.715000000    -0.496000000
C     0.549000000     0.484000000     0.963000000
H     1.058000000     0.875000000     1.816000000
C    -0.301000000    -0.636000000     1.152000000
H    -0.447000000    -1.132000000     2.108000000
C    -1.033000000    -1.098000000     0.083000000
H    -1.852000000    -1.791000000     0.259000000
C    -0.763000000    -0.598000000    -1.219000000
C    -1.461000000    -1.127000000    -2.471000000
O    -1.342000000    -0.584000000    -3.531000000
O    -2.292000000    -1.991000000    -2.358000000
O    -5.886000000     0.018000000    -3.772000000
H    -6.776000000     0.165000000    -3.451000000
H    -5.830000000     0.543000000    -4.570000000
O     2.947000000     2.961000000     3.152000000
H     3.378000000     2.254000000     3.632000000
H     2.233000000     3.240000000     3.726000000
O    -2.031000000    -4.659000000    -2.229000000
H    -2.298000000    -3.752000000    -2.376000000
H    -1.907000000    -5.018000000    -3.108000000
O    -1.238000000     3.100000000     2.718000000
H    -2.017000000     2.739000000     3.141000000
H    -1.279000000     2.773000000     1.820000000
O     5.253000000     3.196000000     0.137000000
H     5.251000000     3.259000000    -0.818000000
H     4.743000000     2.409000000     0.326000000
O     2.764000000     4.605000000    -2.104000000
H     2.460000000     4.518000000    -1.201000000
H     3.145000000     3.752000000    -2.312000000
O    -1.586000000     5.098000000    -0.784000000
H    -1.251000000     4.395000000    -0.227000000
H    -2.248000000     4.675000000    -1.331000000
O    -2.946000000    -1.812000000    -5.303000000
H    -3.486000000    -2.330000000    -4.706000000
H    -2.349000000    -1.331000000    -4.729000000
O     2.259000000     4.468000000     0.628000000
H     1.927000000     5.298000000     0.971000000
H     2.655000000     4.038000000     1.385000000
O    -5.412000000     2.055000000     1.552000000
H    -5.049000000     1.294000000     1.100000000
H    -6.226000000     1.737000000     1.941000000
O     2.404000000    -3.069000000    -6.025000000
H     2.119000000    -2.216000000    -5.699000000
H     2.941000000    -2.866000000    -6.791000000
O    -1.092000000     1.928000000    -4.219000000
H    -1.249000000     1.004000000    -4.022000000
H    -1.731000000     2.139000000    -4.899000000
O    -2.510000000    -3.090000000     5.095000000
H    -1.988000000    -2.288000000     5.081000000
H    -3.141000000    -2.977000000     4.384000000
O    -0.049000000    -4.396000000     2.706000000
H     0.444000000    -5.144000000     2.367000000
H    -0.603000000    -4.124000000     1.974000000
O    -4.254000000    -5.226000000     1.160000000
H    -4.530000000    -4.926000000     0.295000000
H    -4.140000000    -6.171000000     1.061000000
O     0.589000000     3.812000000     4.789000000
H     0.056000000     3.536000000     4.043000000
H     0.802000000     4.727000000     4.605000000
O     3.879000000     0.654000000     6.661000000
H     3.535000000     1.546000000     6.623000000
H     3.580000000     0.317000000     7.506000000
O     2.823000000     3.166000000     6.405000000
H     2.876000000     3.922000000     6.989000000
H     2.089000000     3.364000000     5.823000000
O     0.940000000    -0.661000000    -4.866000000
H     0.230000000    -0.897000000    -4.269000000
H     1.100000000     0.267000000    -4.693000000
O    -2.978000000     0.115000000     3.939000000
H    -3.084000000     0.858000000     4.534000000
H    -3.844000000    -0.005000000     3.548000000
O    -2.129000000     2.336000000     0.370000000
H    -2.349000000     2.187000000    -0.550000000
H    -1.569000000     1.596000000     0.605000000
O     6.666000000     3.146000000     2.699000000
H     6.213000000     2.520000000     3.264000000
H     6.230000000     3.062000000     1.851000000
O    -4.663000000    -6.210000000    -1.311000000
H    -3.994000000    -5.606000000    -1.634000000
H    -4.328000000    -7.079000000    -1.533000000
O     1.404000000    -2.173000000     3.839000000
H     0.841000000    -2.792000000     3.375000000
H     0.810000000    -1.483000000     4.134000000
O     3.585000000     0.453000000    -5.764000000
H     3.905000000     1.012000000    -5.057000000
H     3.041000000     1.031000000    -6.300000000
O    -2.759000000     2.788000000    -2.222000000
H    -3.395000000     3.176000000    -2.824000000
H    -1.998000000     2.596000000    -2.769000000
O    -0.664000000    -1.569000000    -6.976000000
H    -0.025000000    -1.155000000    -6.395000000
H    -1.453000000    -1.656000000    -6.441000000
O     4.104000000     0.663000000    -0.603000000
H     4.778000000     0.072000000    -0.265000000
H     3.401000000     0.082000000    -0.894000000
O    -4.733000000    -3.228000000    -0.568000000
H    -4.727000000    -3.207000000    -1.525000000
H    -4.675000000    -2.309000000    -0.308000000
O     5.000000000    -0.714000000     2.255000000
H     4.546000000    -1.537000000     2.073000000
H     5.326000000    -0.427000000     1.403000000
O    -0.487000000     4.059000000     7.269000000
H     0.068000000     4.083000000     6.489000000
H    -0.050000000     3.441000000     7.855000000
O     0.992000000    -4.241000000    -3.659000000
H     0.961000000    -3.626000000    -2.926000000
H     1.487000000    -3.781000000    -4.336000000
O    -5.963000000    -0.690000000     2.268000000
H    -6.484000000    -0.187000000     2.895000000
H    -6.572000000    -1.342000000     1.920000000
O     1.873000000    -1.735000000     6.706000000
H     1.165000000    -1.144000000     6.960000000
H     1.856000000    -1.731000000     5.749000000
O     3.092000000    -2.423000000     1.541000000
H     2.512000000    -1.984000000     0.920000000
H     2.554000000    -2.552000000     2.322000000
O     3.252000000    -1.504000000    -1.847000000
H     3.479000000    -1.705000000    -2.755000000
H     2.668000000    -2.214000000    -1.583000000
O     1.176000000    -3.169000000    -1.161000000
H     1.106000000    -4.084000000    -0.890000000
H     0.549000000    -2.706000000    -0.606000000
O    -0.423000000    -0.575000000     5.057000000
H    -0.444000000    -0.029000000     5.843000000
H    -1.268000000    -0.421000000     4.636000000
O    -4.037000000    -2.527000000     2.790000000
H    -4.804000000    -1.956000000     2.751000000
H    -4.175000000    -3.162000000     2.087000000
O     3.829000000     1.975000000    -3.107000000
H     4.657000000     1.855000000    -3.572000000
H     3.893000000     1.390000000    -2.352000000
O    -2.850000000     2.686000000    -6.097000000
H    -3.182000000     1.817000000    -6.324000000
H    -2.661000000     3.098000000    -6.941000000
O    -4.667000000    -2.437000000    -3.154000000
H    -5.109000000    -1.659000000    -3.494000000
H    -3.774000000    -2.144000000    -2.972000000
O    -1.640000000    -4.220000000     0.588000000
H    -1.563000000    -4.100000000    -0.358000000
H    -2.583000000    -4.250000000     0.751000000
O     5.389000000     1.053000000     4.214000000
H     5.262000000     0.415000000     3.512000000
H     4.851000000     0.726000000     4.935000000
O    -4.054000000    -2.937000000    -7.370000000
H    -3.456000000    -2.344000000    -6.915000000
H    -4.913000000    -2.525000000    -7.281000000
O    -2.642000000     2.441000000     5.692000000
H    -3.394000000     2.547000000     6.275000000
H    -1.936000000     2.924000000     6.122000000
O     1.297000000     3.459000000    -4.582000000
H     1.515000000     3.835000000    -3.729000000
H     0.449000000     3.036000000    -4.448000000
O    -5.827000000    -4.572000000    -4.734000000
H    -6.483000000    -5.070000000    -4.248000000
H    -5.345000000    -4.091000000    -4.061000000
