158
-3065.92413
C     0.101000000     0.268000000    -1.495000000
H     0.344000000     0.511000000    -2.526000000
C     0.950000000     0.741000000    -0.491000000
H     1.750000000     1.448000000    -0.698000000
C     0.728000000     0.437000000     0.888000000
H     1.260000000     1.005000000     1.713000000
C    -0.282000000    -0.404000000     1.204000000
H    -0.451000000    -0.593000000     2.261000000
C    -0.998000000    -0.964000000     0.158000000
H    -1.752000000    -1.710000000     0.397000000
C    -0.831000000    -0.656000000    -1.167000000
C    -1.733000000    -1.221000000    -2.234000000
O    -1.421000000    -1.227000000    -3.363000000
O    -2.707000000    -1.923000000    -1.892000000
O     3.253000000     5.407000000     1.031000000
H     3.965000000     6.001000000     1.269000000
H     2.473000000     5.800000000     1.424000000
O     2.788000000     2.810000000     3.205000000
H     2.904000000     3.498000000     2.550000000
H     3.443000000     3.003000000     3.875000000
O    -3.062000000    -4.420000000    -0.942000000
H    -3.213000000    -3.479000000    -1.031000000
H    -3.317000000    -4.619000000    -0.041000000
O     7.083000000     0.177000000     2.931000000
H     6.329000000     0.529000000     2.458000000
H     6.708000000    -0.223000000     3.716000000
O    -2.158000000     1.071000000     3.540000000
H    -1.453000000     1.556000000     3.113000000
H    -2.846000000     1.013000000     2.877000000
O    -4.988000000    -0.593000000    -1.489000000
H    -4.274000000    -1.230000000    -1.446000000
H    -4.934000000    -0.234000000    -2.375000000
O    -3.592000000     3.621000000     2.251000000
H    -3.365000000     3.266000000     1.392000000
H    -2.765000000     3.633000000     2.732000000
O     3.071000000     1.839000000    -2.967000000
H     3.386000000     0.936000000    -2.956000000
H     3.405000000     2.220000000    -2.155000000
O     2.462000000     5.684000000    -2.248000000
H     3.214000000     5.197000000    -2.584000000
H     1.864000000     5.747000000    -2.993000000
O    -0.585000000     4.083000000     0.924000000
H    -0.661000000     4.669000000     0.171000000
H    -1.199000000     3.373000000     0.739000000
O    -2.871000000    -3.736000000    -3.894000000
H    -3.078000000    -4.519000000    -3.383000000
H    -2.859000000    -3.027000000    -3.251000000
O     3.939000000     3.476000000    -0.807000000
H     3.787000000     2.735000000    -0.221000000
H     3.537000000     4.221000000    -0.361000000
O     4.485000000    -2.940000000     4.243000000
H     4.260000000    -2.014000000     4.332000000
H     3.770000000    -3.404000000     4.679000000
O    -4.150000000     0.059000000     1.888000000
H    -4.421000000    -0.602000000     2.526000000
H    -4.913000000     0.172000000     1.321000000
O    -0.788000000    -4.841000000    -5.454000000
H    -1.091000000    -5.748000000    -5.498000000
H    -1.444000000    -4.395000000    -4.919000000
O     1.918000000    -5.151000000    -4.144000000
H     1.119000000    -4.739000000    -4.472000000
H     1.687000000    -5.458000000    -3.267000000
O    -0.902000000     1.356000000    -4.572000000
H    -0.767000000     0.481000000    -4.209000000
H    -1.557000000     1.231000000    -5.259000000
O    -0.567000000    -4.170000000     2.012000000
H     0.011000000    -4.846000000     1.660000000
H    -1.446000000    -4.447000000     1.753000000
O     1.202000000     3.492000000    -4.373000000
H     0.911000000     2.993000000    -5.137000000
H     1.730000000     2.873000000    -3.869000000
O    -0.016000000     2.898000000     3.440000000
H     0.784000000     2.388000000     3.560000000
H     0.103000000     3.336000000     2.597000000
O     1.003000000     5.187000000     5.556000000
H     0.786000000     6.116000000     5.480000000
H     0.421000000     4.754000000     4.931000000
O     2.813000000    -0.431000000     4.050000000
H     2.072000000    -0.121000000     4.571000000
H     2.418000000    -0.991000000     3.381000000
O     1.113000000    -2.331000000    -3.564000000
H     0.193000000    -2.165000000    -3.359000000
H     1.335000000    -3.112000000    -3.057000000
O    -2.418000000    -1.390000000     5.048000000
H    -2.232000000    -0.733000000     4.378000000
H    -3.334000000    -1.241000000     5.282000000
O     0.876000000     6.202000000     2.019000000
H     0.384000000     5.460000000     1.668000000
H     0.247000000     6.667000000     2.569000000
O    -2.463000000     2.380000000     0.031000000
H    -2.901000000     2.478000000    -0.815000000
H    -2.130000000     1.483000000     0.026000000
O     5.990000000     3.370000000     1.417000000
H     5.928000000     4.067000000     0.764000000
H     5.264000000     2.782000000     1.210000000
O    -4.633000000    -6.423000000    -2.135000000
H    -4.862000000    -5.692000000    -1.561000000
H    -4.267000000    -7.084000000    -1.547000000
O     1.666000000    -2.654000000     2.745000000
H     0.945000000    -2.940000000     2.184000000
H     1.252000000    -2.466000000     3.588000000
O    -2.951000000     2.372000000    -2.672000000
H    -3.251000000     3.087000000    -3.233000000
H    -2.215000000     1.987000000    -3.147000000
O     5.196000000     0.571000000     5.035000000
H     5.197000000     1.487000000     4.758000000
H     4.362000000     0.226000000     4.717000000
O    -1.867000000    -1.389000000    -5.791000000
H    -2.520000000    -0.693000000    -5.854000000
H    -1.780000000    -1.552000000    -4.852000000
O     3.308000000    -0.876000000    -3.102000000
H     4.020000000    -1.491000000    -3.282000000
H     2.510000000    -1.385000000    -3.244000000
O    -1.711000000    -3.323000000    -7.775000000
H    -1.784000000    -2.661000000    -7.087000000
H    -1.560000000    -4.142000000    -7.304000000
O    -6.203000000    -2.471000000     0.337000000
H    -6.794000000    -2.170000000     1.027000000
H    -5.864000000    -1.667000000    -0.056000000
O     4.535000000    -0.979000000    -0.410000000
H     4.326000000    -1.894000000    -0.223000000
H     4.096000000    -0.797000000    -1.240000000
O     0.012000000    -4.165000000    -1.483000000
H     0.561000000    -3.571000000    -0.971000000
H    -0.884000000    -3.930000000    -1.243000000
O     3.928000000    -3.252000000     1.162000000
H     3.236000000    -2.989000000     1.769000000
H     4.515000000    -3.794000000     1.689000000
O     1.722000000    -2.382000000    -0.480000000
H     1.282000000    -1.590000000    -0.171000000
H     2.420000000    -2.532000000     0.158000000
O     0.643000000    -2.042000000     5.158000000
H     1.063000000    -1.330000000     5.642000000
H    -0.284000000    -1.970000000     5.383000000
O     2.400000000     0.494000000    -5.949000000
H     2.154000000    -0.424000000    -6.058000000
H     2.295000000     0.661000000    -5.012000000
O    -3.855000000     1.618000000    -6.012000000
H    -4.530000000     1.126000000    -5.545000000
H    -4.287000000     1.917000000    -6.812000000
O     0.785000000     0.722000000     5.755000000
H     1.403000000     1.421000000     5.967000000
H    -0.068000000     1.068000000     6.017000000
O    -6.606000000    -2.399000000    -3.118000000
H    -7.132000000    -1.601000000    -3.163000000
H    -6.241000000    -2.397000000    -2.233000000
O    -3.398000000    -4.315000000     2.170000000
H    -3.777000000    -3.529000000     2.564000000
H    -3.288000000    -4.921000000     2.902000000
O     3.916000000     1.463000000     1.228000000
H     3.911000000     0.513000000     1.111000000
H     3.536000000     1.601000000     2.095000000
O    -4.877000000    -1.835000000    -5.217000000
H    -4.066000000    -2.246000000    -4.917000000
H    -5.533000000    -2.104000000    -4.574000000
O     1.046000000    -1.899000000    -6.351000000
H     0.922000000    -2.279000000    -5.481000000
H     0.177000000    -1.584000000    -6.600000000
