158
-3047.01249
C    -0.542000000    -0.535000000     1.352000000
H    -0.706000000    -0.873000000     2.372000000
C    -0.140000000     0.826000000     1.081000000
H    -0.120000000     1.538000000     1.903000000
C     0.237000000     1.203000000    -0.221000000
H     0.651000000     2.133000000    -0.486000000
C     0.369000000     0.221000000    -1.201000000
H     0.881000000     0.397000000    -2.144000000
C     0.045000000    -1.085000000    -0.919000000
H     0.240000000    -1.840000000    -1.676000000
C    -0.499000000    -1.494000000     0.299000000
C    -0.855000000    -2.945000000     0.562000000
O    -0.320000000    -3.809000000    -0.150000000
O    -1.564000000    -3.140000000     1.522000000
O    -2.169000000    -1.392000000    -2.830000000
H    -2.701000000    -1.518000000    -2.044000000
H    -1.703000000    -2.221000000    -2.939000000
O    -2.163000000     3.474000000     3.440000000
H    -1.868000000     3.816000000     2.596000000
H    -2.294000000     4.253000000     3.981000000
O     0.875000000     5.439000000    -0.489000000
H     1.071000000     6.368000000    -0.366000000
H     0.900000000     5.312000000    -1.437000000
O     5.310000000    -1.773000000    -1.603000000
H     6.078000000    -2.050000000    -1.102000000
H     4.568000000    -1.966000000    -1.030000000
O    -6.243000000    -3.022000000     2.112000000
H    -6.539000000    -2.119000000     1.999000000
H    -5.356000000    -2.941000000     2.463000000
O     2.440000000    -7.247000000     1.799000000
H     3.112000000    -7.360000000     1.127000000
H     1.647000000    -7.027000000     1.311000000
O     0.465000000    -5.265000000    -4.243000000
H     0.970000000    -6.068000000    -4.115000000
H     0.100000000    -5.348000000    -5.124000000
O    -4.673000000     2.292000000     3.575000000
H    -3.732000000     2.437000000     3.481000000
H    -4.775000000     1.341000000     3.525000000
O    -0.844000000    -4.338000000     3.836000000
H    -1.219000000    -4.121000000     2.982000000
H     0.058000000    -4.020000000     3.789000000
O     4.609000000    -4.999000000    -1.171000000
H     5.326000000    -4.480000000    -0.805000000
H     3.843000000    -4.744000000    -0.656000000
O     1.130000000     4.652000000     3.577000000
H     0.363000000     4.577000000     3.009000000
H     1.858000000     4.816000000     2.977000000
O     1.295000000     2.809000000    -5.795000000
H     0.374000000     2.558000000    -5.870000000
H     1.415000000     3.482000000    -6.464000000
O    -1.489000000    -4.344000000    -2.549000000
H    -0.793000000    -4.568000000    -3.166000000
H    -1.034000000    -4.181000000    -1.723000000
O     1.827000000    -2.545000000     5.990000000
H     1.847000000    -3.329000000     6.540000000
H     1.538000000    -2.860000000     5.134000000
O     2.454000000    -0.397000000     2.293000000
H     1.803000000    -0.083000000     1.665000000
H     2.238000000     0.056000000     3.108000000
O     2.935000000     4.966000000     1.495000000
H     2.171000000     5.083000000     0.929000000
H     3.634000000     4.696000000     0.900000000
O     1.473000000     0.111000000     4.790000000
H     0.666000000     0.616000000     4.688000000
H     1.449000000    -0.198000000     5.695000000
O    -3.951000000    -6.100000000     3.814000000
H    -4.700000000    -6.636000000     4.075000000
H    -3.783000000    -6.349000000     2.905000000
O    -1.658000000     5.473000000    -2.536000000
H    -2.448000000     5.940000000    -2.262000000
H    -1.732000000     4.614000000    -2.121000000
O    -3.665000000    -3.358000000     3.153000000
H    -2.877000000    -3.254000000     2.620000000
H    -3.703000000    -4.294000000     3.345000000
O    -1.141000000     0.889000000     4.722000000
H    -1.487000000     1.440000000     4.020000000
H    -1.837000000     0.253000000     4.892000000
O    -5.120000000    -4.218000000    -0.285000000
H    -5.714000000    -4.283000000    -1.033000000
H    -5.640000000    -3.795000000     0.398000000
O     1.710000000    -3.265000000     3.436000000
H     1.870000000    -2.391000000     3.080000000
H     2.565000000    -3.552000000     3.757000000
O    -1.922000000     1.633000000    -2.597000000
H    -1.418000000     1.877000000    -1.821000000
H    -1.970000000     0.678000000    -2.561000000
O     0.293000000    -6.952000000     4.193000000
H     1.196000000    -6.950000000     3.877000000
H    -0.079000000    -6.134000000     3.864000000
O    -0.473000000     4.458000000     1.509000000
H     0.020000000     4.996000000     0.889000000
H    -1.004000000     3.884000000     0.957000000
O     4.975000000     0.473000000     1.190000000
H     5.328000000    -0.372000000     1.469000000
H     4.141000000     0.549000000     1.653000000
O    -0.797000000     2.690000000     6.631000000
H    -0.289000000     2.100000000     7.187000000
H    -0.932000000     2.198000000     5.821000000
O    -4.248000000    -0.819000000     2.492000000
H    -4.874000000    -0.531000000     3.156000000
H    -3.784000000    -1.550000000     2.900000000
O    -1.402000000    -7.380000000    -1.926000000
H    -1.455000000    -6.519000000    -2.342000000
H    -1.751000000    -7.984000000    -2.581000000
O    -3.062000000    -5.672000000     1.190000000
H    -2.323000000    -5.267000000     0.736000000
H    -3.820000000    -5.467000000     0.642000000
O    -3.454000000    -1.676000000    -0.612000000
H    -3.905000000    -2.520000000    -0.580000000
H    -3.216000000    -1.497000000     0.297000000
O     3.922000000     0.569000000    -2.461000000
H     4.692000000     0.044000000    -2.245000000
H     3.328000000     0.437000000    -1.722000000
O    -1.394000000    -3.428000000     6.664000000
H    -0.994000000    -4.294000000     6.746000000
H    -1.170000000    -3.144000000     5.778000000
O     5.508000000     3.158000000    -2.498000000
H     4.711000000     2.671000000    -2.708000000
H     6.201000000     2.498000000    -2.504000000
O    -2.977000000    -8.395000000     1.303000000
H    -2.740000000    -7.468000000     1.307000000
H    -3.770000000    -8.437000000     0.768000000
O     5.069000000     4.273000000    -0.022000000
H     5.256000000     3.737000000    -0.793000000
H     5.552000000     5.086000000    -0.173000000
O    -2.243000000     2.861000000    -5.243000000
H    -3.196000000     2.941000000    -5.230000000
H    -2.033000000     2.369000000    -4.450000000
O     4.237000000     3.945000000    -5.099000000
H     4.244000000     4.897000000    -5.199000000
H     3.381000000     3.751000000    -4.717000000
O    -3.886000000     1.063000000     0.094000000
H    -3.797000000     0.734000000     0.988000000
H    -4.040000000     0.281000000    -0.435000000
O     0.887000000     4.431000000    -3.180000000
H    -0.027000000     4.714000000    -3.160000000
H     0.927000000     3.803000000    -3.901000000
O     4.174000000    -4.485000000     2.489000000
H     4.586000000    -5.317000000     2.259000000
H     3.257000000    -4.594000000     2.237000000
O     3.603000000    -2.451000000     0.388000000
H     3.090000000    -3.221000000     0.140000000
H     3.008000000    -1.931000000     0.928000000
O     2.163000000    -2.761000000    -4.785000000
H     1.611000000    -3.529000000    -4.638000000
H     1.585000000    -2.128000000    -5.212000000
O     2.218000000    -4.501000000    -0.169000000
H     2.074000000    -5.426000000    -0.373000000
H     1.339000000    -4.126000000    -0.121000000
O    -2.360000000     3.340000000    -0.010000000
H    -2.694000000     2.443000000     0.017000000
H    -3.084000000     3.875000000     0.317000000
O    -0.057000000    -6.317000000     0.543000000
H    -0.275000000    -5.421000000     0.288000000
H    -0.651000000    -6.864000000     0.029000000
O     4.090000000    -0.704000000    -4.861000000
H     4.032000000    -0.274000000    -4.008000000
H     3.451000000    -1.415000000    -4.816000000
