158
-3036.31437
C    -0.099000000    -0.684000000     1.287000000
H    -0.266000000    -0.976000000     2.320000000
C     0.061000000     0.725000000     1.139000000
H    -0.058000000     1.392000000     1.989000000
C     0.247000000     1.188000000    -0.105000000
H     0.237000000     2.231000000    -0.256000000
C     0.370000000     0.345000000    -1.230000000
H     0.344000000     0.749000000    -2.239000000
C     0.116000000    -1.056000000    -1.071000000
H    -0.048000000    -1.774000000    -1.871000000
C    -0.177000000    -1.592000000     0.199000000
C    -0.567000000    -2.987000000     0.398000000
O    -0.364000000    -3.833000000    -0.478000000
O    -1.225000000    -3.301000000     1.385000000
O    -3.140000000    -1.557000000    -3.260000000
H    -3.274000000    -2.044000000    -2.447000000
H    -2.230000000    -1.735000000    -3.498000000
O    -0.361000000     6.493000000    -3.166000000
H    -0.817000000     5.847000000    -3.706000000
H    -0.488000000     6.185000000    -2.268000000
O    -2.692000000     2.812000000     3.687000000
H    -2.634000000     3.448000000     4.400000000
H    -3.075000000     3.302000000     2.959000000
O     1.871000000     4.531000000    -0.096000000
H     1.758000000     5.428000000    -0.410000000
H     1.904000000     4.000000000    -0.892000000
O     5.130000000     4.695000000    -3.372000000
H     5.387000000     3.910000000    -3.856000000
H     4.520000000     4.376000000    -2.706000000
O     1.922000000     7.277000000    -0.928000000
H     2.394000000     7.533000000    -1.721000000
H     1.194000000     7.896000000    -0.873000000
O     3.604000000    -6.973000000     0.143000000
H     4.280000000    -6.779000000    -0.506000000
H     2.779000000    -6.796000000    -0.309000000
O    -1.936000000    -0.509000000     5.502000000
H    -2.409000000    -0.757000000     4.708000000
H    -1.381000000    -1.264000000     5.697000000
O    -5.189000000    -1.043000000     3.010000000
H    -5.717000000    -1.768000000     2.677000000
H    -4.311000000    -1.411000000     3.108000000
O    -2.761000000    -6.185000000    -4.602000000
H    -1.991000000    -6.154000000    -5.170000000
H    -2.676000000    -5.414000000    -4.041000000
O     1.933000000    -4.061000000     3.586000000
H     1.339000000    -3.325000000     3.441000000
H     2.729000000    -3.661000000     3.936000000
O     0.774000000     5.822000000     4.495000000
H     0.396000000     5.563000000     3.655000000
H     1.719000000     5.818000000     4.344000000
O     1.937000000     1.263000000    -4.548000000
H     2.756000000     0.868000000    -4.250000000
H     1.415000000     0.524000000    -4.861000000
O    -1.345000000    -4.688000000    -2.675000000
H    -1.218000000    -5.634000000    -2.600000000
H    -1.004000000    -4.335000000    -1.854000000
O     3.375000000     0.345000000     0.430000000
H     2.463000000     0.609000000     0.309000000
H     3.464000000     0.215000000     1.374000000
O     3.401000000     0.103000000     3.280000000
H     2.639000000     0.423000000     3.763000000
H     3.697000000    -0.659000000     3.778000000
O    -3.694000000    -4.791000000     2.855000000
H    -4.534000000    -5.231000000     2.720000000
H    -3.258000000    -4.840000000     2.004000000
O    -1.183000000     5.416000000    -0.903000000
H    -2.008000000     5.865000000    -1.088000000
H    -1.341000000     4.955000000    -0.079000000
O     0.519000000    -0.425000000    -6.641000000
H     0.102000000     0.429000000    -6.762000000
H     0.413000000    -0.864000000    -7.485000000
O     1.595000000     4.054000000    -5.686000000
H     1.771000000     3.574000000    -4.877000000
H     0.645000000     4.170000000    -5.694000000
O    -2.709000000    -2.366000000     3.528000000
H    -2.069000000    -2.267000000     2.823000000
H    -2.918000000    -3.300000000     3.533000000
O    -0.301000000     1.288000000     4.809000000
H    -0.606000000     2.162000000     4.569000000
H    -1.101000000     0.798000000     4.999000000
O    -5.382000000    -4.493000000     0.221000000
H    -5.986000000    -4.870000000    -0.419000000
H    -5.935000000    -4.268000000     0.969000000
O    -2.822000000     1.044000000    -3.502000000
H    -3.452000000     1.366000000    -2.857000000
H    -2.838000000     0.092000000    -3.397000000
O    -0.664000000    -5.603000000     2.748000000
H    -0.918000000    -4.990000000     2.059000000
H     0.161000000    -5.254000000     3.086000000
O     0.081000000     4.805000000     2.149000000
H     0.567000000     4.625000000     1.344000000
H    -0.734000000     4.312000000     2.053000000
O    -0.924000000    -7.642000000    -2.828000000
H    -1.755000000    -7.583000000    -3.299000000
H    -0.371000000    -8.189000000    -3.385000000
O    -2.585000000    -5.487000000     0.424000000
H    -1.982000000    -4.747000000     0.360000000
H    -3.453000000    -5.086000000     0.468000000
O    -4.580000000    -1.668000000    -0.492000000
H    -4.976000000    -2.515000000    -0.283000000
H    -5.183000000    -1.024000000    -0.121000000
O    -3.238000000     4.573000000    -3.038000000
H    -3.753000000     5.161000000    -3.592000000
H    -3.671000000     4.608000000    -2.185000000
O     4.087000000    -0.006000000    -3.582000000
H     4.915000000    -0.177000000    -4.030000000
H     4.175000000    -0.450000000    -2.738000000
O    -1.231000000    -2.988000000     6.095000000
H    -1.912000000    -3.363000000     5.536000000
H    -0.409000000    -3.269000000     5.692000000
O    -1.775000000    -7.975000000     3.667000000
H    -2.403000000    -8.076000000     2.952000000
H    -1.365000000    -7.125000000     3.508000000
O    -2.270000000    -8.715000000    -0.309000000
H    -2.333000000    -7.783000000    -0.516000000
H    -3.159000000    -9.049000000    -0.430000000
O     5.254000000     2.263000000     0.233000000
H     4.498000000     1.677000000     0.249000000
H     5.867000000     1.848000000    -0.373000000
O     4.369000000     4.821000000     0.978000000
H     4.598000000     3.992000000     0.557000000
H     3.542000000     5.077000000     0.569000000
O    -1.814000000     2.732000000    -6.552000000
H    -2.756000000     2.781000000    -6.390000000
H    -1.422000000     2.700000000    -5.679000000
O    -2.702000000     0.626000000    -0.458000000
H    -1.764000000     0.535000000    -0.627000000
H    -2.998000000    -0.263000000    -0.265000000
O     2.020000000     3.335000000    -2.722000000
H     2.185000000     2.418000000    -2.938000000
H     1.281000000     3.583000000    -3.278000000
O     0.601000000    -7.932000000     1.703000000
H     0.855000000    -7.776000000     0.793000000
H    -0.162000000    -7.370000000     1.839000000
O    -1.052000000     3.061000000    -3.855000000
H    -1.491000000     2.210000000    -3.835000000
H    -1.603000000     3.627000000    -3.315000000
O     4.338000000    -1.516000000    -1.423000000
H     3.601000000    -2.087000000    -1.637000000
H     4.009000000    -0.951000000    -0.723000000
O    -0.739000000    -1.800000000    -4.471000000
H    -0.314000000    -2.657000000    -4.513000000
H    -0.692000000    -1.465000000    -5.367000000
O     2.322000000    -3.318000000    -1.489000000
H     2.604000000    -4.219000000    -1.648000000
H     1.387000000    -3.389000000    -1.299000000
O    -2.701000000     3.665000000     0.727000000
H    -2.815000000     2.725000000     0.588000000
H    -3.585000000     3.992000000     0.890000000
O     0.892000000    -6.748000000    -0.935000000
H     0.482000000    -5.964000000    -0.569000000
H     0.318000000    -7.003000000    -1.658000000
O     3.027000000    -3.063000000    -4.528000000
H     3.650000000    -3.789000000    -4.504000000
H     2.800000000    -2.911000000    -3.611000000
O     3.595000000     5.273000000     3.722000000
H     3.592000000     5.384000000     2.771000000
H     3.763000000     4.340000000     3.854000000
