158
-3007.85775
C     0.682000000     0.326000000    -1.320000000
H     1.199000000     0.735000000    -2.185000000
C     1.349000000     0.116000000    -0.101000000
H     2.419000000     0.305000000    -0.095000000
C     0.599000000    -0.110000000     1.054000000
H     1.167000000    -0.060000000     2.026000000
C    -0.788000000    -0.332000000     1.009000000
H    -1.270000000    -0.461000000     1.975000000
C    -1.479000000    -0.268000000    -0.172000000
H    -2.531000000    -0.539000000    -0.150000000
C    -0.728000000     0.087000000    -1.349000000
C    -1.421000000     0.075000000    -2.688000000
O    -0.807000000     0.461000000    -3.673000000
O    -2.618000000    -0.154000000    -2.670000000
O     4.219000000     1.016000000     3.783000000
H     3.875000000     0.321000000     3.220000000
H     4.441000000     0.573000000     4.601000000
O    -6.215000000     1.866000000    -3.283000000
H    -6.255000000     2.130000000    -2.364000000
H    -5.289000000     1.945000000    -3.515000000
O     4.073000000    -3.679000000     3.123000000
H     4.166000000    -4.142000000     2.290000000
H     4.464000000    -4.268000000     3.769000000
O    -4.260000000    -2.194000000     1.323000000
H    -4.054000000    -3.090000000     1.590000000
H    -4.206000000    -2.211000000     0.368000000
O    -5.979000000     1.577000000    -0.714000000
H    -6.691000000     0.941000000    -0.642000000
H    -6.126000000     2.184000000     0.011000000
O     1.502000000    -2.367000000     5.417000000
H     1.412000000    -2.376000000     4.464000000
H     1.144000000    -1.520000000     5.683000000
O    -7.066000000    -1.940000000    -2.064000000
H    -6.865000000    -1.748000000    -2.980000000
H    -7.251000000    -2.879000000    -2.051000000
O    -3.414000000     2.430000000    -3.986000000
H    -2.941000000     1.681000000    -3.623000000
H    -2.853000000     2.746000000    -4.694000000
O     4.746000000    -2.613000000    -0.367000000
H     4.658000000    -2.513000000    -1.315000000
H     5.537000000    -2.122000000    -0.147000000
O    -5.178000000    -1.180000000    -6.988000000
H    -5.134000000    -1.089000000    -6.036000000
H    -4.964000000    -0.309000000    -7.321000000
O     4.711000000     0.697000000    -3.719000000
H     4.481000000     1.475000000    -3.212000000
H     4.960000000     1.036000000    -4.579000000
O     1.955000000    -1.792000000    -7.241000000
H     2.844000000    -2.149000000    -7.255000000
H     1.891000000    -1.343000000    -6.398000000
O     0.621000000     4.148000000    -1.507000000
H     0.552000000     4.143000000    -0.553000000
H     1.284000000     4.811000000    -1.697000000
O     6.135000000    -1.761000000     5.345000000
H     5.863000000    -1.554000000     4.451000000
H     6.055000000    -2.713000000     5.406000000
O     1.170000000    -2.996000000    -3.784000000
H     0.328000000    -3.049000000    -3.331000000
H     1.258000000    -2.072000000    -4.019000000
O    -0.361000000     2.072000000    -6.793000000
H    -0.918000000     1.293000000    -6.787000000
H    -0.148000000     2.221000000    -5.872000000
O    -5.205000000    -0.680000000    -4.149000000
H    -4.248000000    -0.672000000    -4.125000000
H    -5.463000000     0.128000000    -3.705000000
O     2.104000000     5.798000000     4.818000000
H     2.043000000     4.944000000     4.389000000
H     1.419000000     6.323000000     4.405000000
O     5.923000000     3.986000000     1.030000000
H     6.397000000     3.703000000     0.249000000
H     5.396000000     3.227000000     1.279000000
O     3.846000000    -0.957000000     1.848000000
H     4.511000000    -1.626000000     2.010000000
H     3.017000000    -1.384000000     2.067000000
O    -5.051000000    -3.498000000    -4.313000000
H    -4.166000000    -3.863000000    -4.318000000
H    -4.991000000    -2.734000000    -3.738000000
O    -3.046000000    -3.023000000     4.672000000
H    -3.517000000    -2.610000000     3.948000000
H    -2.233000000    -3.341000000     4.279000000
O    -4.328000000     1.411000000    -7.181000000
H    -3.733000000     0.840000000    -6.694000000
H    -3.999000000     2.295000000    -7.017000000
O    -1.097000000    -4.641000000     3.611000000
H    -0.469000000    -4.843000000     2.918000000
H    -0.943000000    -5.312000000     4.276000000
O     4.495000000    -2.605000000    -3.488000000
H     4.376000000    -1.721000000    -3.835000000
H     3.671000000    -3.052000000    -3.682000000
O    -6.200000000    -0.312000000     2.284000000
H    -5.389000000    -0.758000000     2.037000000
H    -6.751000000    -1.004000000     2.650000000
O     1.704000000    -0.208000000    -4.527000000
H     0.912000000     0.211000000    -4.189000000
H     2.149000000     0.482000000    -5.019000000
O    -0.805000000    -2.307000000    -7.253000000
H    -0.816000000    -2.190000000    -8.203000000
H     0.070000000    -2.025000000    -6.987000000
O     2.051000000     2.102000000     6.777000000
H     1.492000000     1.422000000     6.400000000
H     2.864000000     2.049000000     6.275000000
O     5.403000000     1.219000000     0.497000000
H     5.315000000     1.226000000    -0.456000000
H     5.009000000     0.390000000     0.768000000
O    -2.203000000     4.441000000    -2.096000000
H    -2.491000000     3.825000000    -2.770000000
H    -1.247000000     4.394000000    -2.122000000
O     4.765000000     3.034000000    -1.847000000
H     4.356000000     3.875000000    -1.641000000
H     5.703000000     3.190000000    -1.735000000
O    -2.210000000     1.068000000     5.212000000
H    -2.296000000     1.450000000     6.085000000
H    -3.111000000     0.896000000     4.936000000
O     2.870000000     1.468000000    -6.284000000
H     2.198000000     1.949000000    -6.768000000
H     3.508000000     2.136000000    -6.033000000
O    -1.845000000     4.740000000     2.936000000
H    -1.268000000     5.472000000     3.155000000
H    -1.322000000     4.189000000     2.353000000
O     1.626000000    -2.557000000     2.795000000
H     2.246000000    -3.243000000     3.040000000
H     1.074000000    -2.961000000     2.125000000
O    -6.065000000    -4.601000000    -0.496000000
H    -5.581000000    -4.959000000     0.248000000
H    -6.082000000    -3.657000000    -0.339000000
O    -0.023000000     2.494000000     2.204000000
H     0.167000000     1.788000000     1.586000000
H    -0.782000000     2.184000000     2.697000000
O    -0.160000000    -3.577000000     1.166000000
H    -0.602000000    -4.384000000     0.903000000
H    -0.795000000    -2.885000000     0.979000000
O     1.388000000    -5.586000000    -0.397000000
H     1.403000000    -6.141000000     0.383000000
H     1.512000000    -4.698000000    -0.062000000
O    -2.139000000    -0.246000000    -6.240000000
H    -1.661000000    -1.002000000    -6.582000000
H    -1.719000000    -0.056000000    -5.402000000
O     2.676000000     3.343000000     3.667000000
H     3.248000000     2.594000000     3.835000000
H     1.930000000     2.973000000     3.196000000
O     0.114000000    -0.356000000     6.668000000
H    -0.659000000    -0.135000000     6.149000000
H    -0.214000000    -0.434000000     7.564000000
O    -0.128000000     2.910000000    -4.139000000
H    -0.396000000     1.994000000    -4.062000000
H     0.127000000     3.161000000    -3.251000000
O     6.319000000     2.816000000     3.826000000
H     6.701000000     3.154000000     3.016000000
H     5.710000000     2.136000000     3.539000000
O    -2.167000000    -2.845000000    -3.505000000
H    -2.435000000    -3.319000000    -2.717000000
H    -2.568000000    -1.981000000    -3.412000000
O    -3.544000000    -4.628000000     2.079000000
H    -2.748000000    -4.571000000     2.608000000
H    -3.547000000    -5.526000000     1.747000000
O    -4.173000000    -1.971000000    -1.580000000
H    -5.058000000    -1.613000000    -1.512000000
H    -3.637000000    -1.232000000    -1.870000000
