158
-3017.62948
C     1.348000000     0.453000000    -0.345000000
H     2.328000000     0.910000000    -0.453000000
C     0.680000000     0.782000000     0.796000000
H     1.027000000     1.509000000     1.526000000
C    -0.594000000     0.266000000     1.040000000
H    -1.153000000     0.476000000     1.978000000
C    -1.131000000    -0.511000000     0.043000000
H    -2.155000000    -0.826000000     0.229000000
C    -0.460000000    -0.850000000    -1.116000000
H    -0.958000000    -1.536000000    -1.796000000
C     0.817000000    -0.351000000    -1.328000000
C     1.503000000    -0.734000000    -2.571000000
O     2.547000000    -0.170000000    -2.802000000
O     1.074000000    -1.472000000    -3.397000000
O     2.673000000    -2.035000000     4.211000000
H     3.174000000    -1.290000000     3.880000000
H     1.982000000    -1.641000000     4.744000000
O    -3.778000000    -2.461000000    -5.398000000
H    -4.503000000    -2.277000000    -4.801000000
H    -3.171000000    -1.732000000    -5.271000000
O     4.133000000     2.446000000     2.438000000
H     4.306000000     1.567000000     2.774000000
H     4.283000000     2.377000000     1.495000000
O     0.386000000    -3.994000000    -4.123000000
H     1.008000000    -4.583000000    -3.695000000
H     0.635000000    -3.121000000    -3.820000000
O    -2.708000000     4.186000000     0.823000000
H    -2.993000000     5.011000000     0.430000000
H    -2.041000000     3.852000000     0.223000000
O    -1.674000000     2.580000000     7.711000000
H    -1.451000000     2.250000000     6.841000000
H    -0.874000000     3.004000000     8.019000000
O    -7.359000000    -0.755000000     2.184000000
H    -7.695000000     0.080000000     2.508000000
H    -6.417000000    -0.614000000     2.090000000
O     4.191000000     5.048000000    -1.324000000
H     4.489000000     5.151000000    -0.421000000
H     4.833000000     5.530000000    -1.845000000
O     4.464000000     2.459000000    -6.654000000
H     4.157000000     3.321000000    -6.373000000
H     4.566000000     1.963000000    -5.842000000
O     2.338000000     3.697000000     0.766000000
H     2.727000000     3.382000000     1.582000000
H     3.083000000     4.001000000     0.247000000
O     4.526000000    -3.637000000    -3.007000000
H     4.435000000    -4.581000000    -2.880000000
H     4.156000000    -3.475000000    -3.874000000
O    -3.480000000    -2.487000000    -1.763000000
H    -4.189000000    -3.046000000    -2.082000000
H    -2.825000000    -3.099000000    -1.429000000
O     1.092000000     2.473000000    -5.966000000
H     1.672000000     1.724000000    -6.104000000
H     1.366000000     2.835000000    -5.124000000
O    -3.452000000     0.195000000    -2.171000000
H    -4.332000000     0.397000000    -1.853000000
H    -3.425000000    -0.762000000    -2.207000000
O     4.519000000    -0.712000000     2.865000000
H     5.207000000    -1.204000000     3.314000000
H     4.703000000    -0.839000000     1.934000000
O    -0.814000000     1.993000000     5.405000000
H    -1.532000000     2.305000000     4.854000000
H    -0.031000000     2.397000000     5.029000000
O    -4.468000000    -0.079000000     1.884000000
H    -4.863000000    -0.462000000     1.100000000
H    -4.464000000     0.863000000     1.713000000
O    -3.736000000    -4.775000000     0.963000000
H    -2.816000000    -5.007000000     0.839000000
H    -3.717000000    -3.859000000     1.239000000
O     5.138000000    -0.850000000    -2.651000000
H     4.940000000    -1.781000000    -2.751000000
H     4.297000000    -0.410000000    -2.779000000
O    -0.480000000    -1.652000000     3.548000000
H     0.157000000    -1.906000000     2.881000000
H    -0.010000000    -1.029000000     4.103000000
O    -6.141000000    -0.505000000     5.069000000
H    -5.601000000    -0.878000000     4.372000000
H    -6.928000000    -1.049000000     5.080000000
O    -5.360000000    -1.554000000     0.012000000
H    -4.620000000    -1.705000000    -0.575000000
H    -6.109000000    -1.939000000    -0.443000000
O     3.609000000    -1.721000000     0.257000000
H     3.964000000    -2.519000000    -0.137000000
H     3.551000000    -1.101000000    -0.470000000
O     7.039000000     0.200000000    -1.175000000
H     7.831000000    -0.147000000    -1.585000000
H     6.322000000    -0.261000000    -1.610000000
O    -1.089000000    -4.599000000     0.629000000
H    -0.919000000    -4.841000000    -0.281000000
H    -0.450000000    -3.911000000     0.817000000
O    -3.075000000    -3.894000000     5.640000000
H    -2.273000000    -3.687000000     5.160000000
H    -3.328000000    -3.068000000     6.052000000
O     2.802000000     1.737000000     5.546000000
H     3.719000000     1.595000000     5.310000000
H     2.793000000     1.701000000     6.502000000
O    -5.713000000     3.634000000     4.288000000
H    -6.369000000     3.616000000     3.591000000
H    -4.887000000     3.808000000     3.836000000
O    -0.136000000     3.354000000    -0.900000000
H     0.514000000     4.046000000    -0.779000000
H     0.370000000     2.542000000    -0.866000000
O    -1.363000000    -4.572000000    -2.104000000
H    -0.974000000    -4.051000000    -2.808000000
H    -2.216000000    -4.838000000    -2.447000000
O    -1.816000000     2.241000000    -2.882000000
H    -1.190000000     2.466000000    -2.194000000
H    -2.411000000     1.615000000    -2.469000000
O    -1.231000000    -0.595000000    -4.875000000
H    -1.247000000     0.359000000    -4.947000000
H    -0.443000000    -0.784000000    -4.366000000
O     5.080000000     2.270000000    -0.149000000
H     5.515000000     1.549000000    -0.605000000
H     5.299000000     3.046000000    -0.665000000
O    -2.595000000     4.053000000     3.783000000
H    -3.082000000     4.794000000     4.141000000
H    -2.722000000     4.117000000     2.836000000
O    -0.955000000    -4.890000000     3.363000000
H    -1.040000000    -5.087000000     2.430000000
H    -0.691000000    -3.970000000     3.390000000
O    -3.291000000    -1.277000000     3.907000000
H    -2.387000000    -1.264000000     3.594000000
H    -3.762000000    -0.705000000     3.301000000
O     2.220000000    -1.233000000    -8.252000000
H     3.045000000    -0.754000000    -8.331000000
H     2.253000000    -1.624000000    -7.379000000
O     0.914000000    -2.616000000     1.083000000
H     0.505000000    -1.839000000     0.702000000
H     1.854000000    -2.472000000     0.970000000
O     0.440000000    -1.600000000     7.834000000
H     0.596000000    -1.067000000     7.054000000
H    -0.421000000    -1.321000000     8.146000000
O     3.487000000    -4.418000000    -5.643000000
H     3.476000000    -3.589000000    -6.121000000
H     2.866000000    -4.974000000    -6.115000000
O     1.479000000     4.200000000     4.365000000
H     1.787000000     4.888000000     3.775000000
H     2.228000000     3.612000000     4.458000000
O    -4.833000000    -3.550000000     3.350000000
H    -4.527000000    -4.339000000     2.904000000
H    -4.130000000    -3.334000000     3.963000000
O     0.789000000    -0.068000000     5.305000000
H     0.013000000     0.481000000     5.420000000
H     1.516000000     0.483000000     5.592000000
O     2.941000000    -1.491000000    -5.467000000
H     1.986000000    -1.514000000    -5.402000000
H     3.238000000    -1.312000000    -4.575000000
O     2.625000000     2.557000000    -3.640000000
H     2.674000000     1.729000000    -3.162000000
H     3.010000000     3.201000000    -3.045000000
O     6.872000000     0.629000000    -4.310000000
H     7.653000000     0.582000000    -3.759000000
H     6.214000000     0.121000000    -3.837000000
O    -5.332000000     2.494000000     0.978000000
H    -5.243000000     2.203000000     0.070000000
H    -4.666000000     3.175000000     1.077000000
O    -0.479000000    -2.796000000    -6.551000000
H    -0.128000000    -3.078000000    -5.706000000
H    -0.830000000    -1.921000000    -6.385000000
