158
-3036.11706
C     0.830000000     0.099000000    -1.250000000
H     1.496000000     0.139000000    -2.109000000
C     0.967000000     0.912000000    -0.132000000
H     1.812000000     1.596000000    -0.126000000
C     0.114000000     0.785000000     0.982000000
H     0.187000000     1.407000000     1.880000000
C    -0.853000000    -0.190000000     0.970000000
H    -1.576000000    -0.272000000     1.778000000
C    -1.111000000    -0.964000000    -0.192000000
H    -1.889000000    -1.720000000    -0.251000000
C    -0.182000000    -0.910000000    -1.274000000
C    -0.301000000    -1.959000000    -2.374000000
O     0.743000000    -2.370000000    -2.959000000
O    -1.431000000    -2.523000000    -2.566000000
O    -3.946000000    -3.524000000     3.284000000
H    -4.578000000    -3.717000000     3.976000000
H    -4.135000000    -2.620000000     3.031000000
O    -1.489000000    -3.372000000     4.524000000
H    -1.486000000    -4.116000000     5.127000000
H    -2.270000000    -3.504000000     3.986000000
O     4.932000000     0.244000000     4.433000000
H     5.293000000    -0.239000000     3.689000000
H     4.069000000     0.532000000     4.135000000
O    -0.817000000    -5.495000000    -5.827000000
H    -1.193000000    -4.615000000    -5.822000000
H    -0.997000000    -5.838000000    -4.952000000
O     2.149000000     1.927000000    -5.406000000
H     2.583000000     1.075000000    -5.453000000
H     2.866000000     2.560000000    -5.372000000
O    -2.453000000    -4.174000000    -0.721000000
H    -1.680000000    -4.346000000    -0.183000000
H    -2.163000000    -3.517000000    -1.354000000
O    -3.146000000     3.450000000     1.896000000
H    -2.215000000     3.628000000     2.030000000
H    -3.319000000     2.670000000     2.424000000
O    -3.857000000     5.075000000    -0.264000000
H    -3.071000000     5.596000000    -0.102000000
H    -3.728000000     4.280000000     0.254000000
O     1.419000000    -4.030000000    -7.377000000
H     1.291000000    -3.124000000    -7.095000000
H     0.887000000    -4.547000000    -6.773000000
O    -2.133000000     2.424000000    -1.250000000
H    -1.921000000     3.181000000    -1.796000000
H    -1.283000000     2.090000000    -0.963000000
O     5.128000000    -3.588000000    -5.237000000
H     4.210000000    -3.762000000    -5.032000000
H     5.568000000    -3.596000000    -4.387000000
O     4.153000000     2.991000000    -2.691000000
H     3.540000000     3.696000000    -2.479000000
H     4.330000000     3.100000000    -3.625000000
O     4.020000000    -1.384000000     0.320000000
H     4.575000000    -0.920000000    -0.307000000
H     3.655000000    -2.115000000    -0.180000000
O    -4.490000000    -1.612000000    -3.998000000
H    -3.885000000    -2.248000000    -4.379000000
H    -4.803000000    -2.030000000    -3.196000000
O     3.297000000     4.935000000     4.931000000
H     3.217000000     4.790000000     3.989000000
H     4.068000000     4.427000000     5.187000000
O     2.681000000     1.017000000     3.386000000
H     2.956000000     1.827000000     2.959000000
H     1.817000000     0.832000000     3.016000000
O    -0.053000000    -4.560000000     0.671000000
H     0.050000000    -5.502000000     0.806000000
H     0.797000000    -4.271000000     0.340000000
O     0.934000000    -1.841000000     4.305000000
H     0.133000000    -2.360000000     4.238000000
H     1.145000000    -1.609000000     3.401000000
O     0.459000000     3.505000000     4.507000000
H     0.944000000     3.911000000     3.788000000
H     0.707000000     2.581000000     4.471000000
O    -3.861000000     1.584000000     3.492000000
H    -3.475000000     0.799000000     3.881000000
H    -4.339000000     1.997000000     4.212000000
O     4.800000000     0.296000000    -1.472000000
H     4.483000000     1.195000000    -1.555000000
H     5.579000000     0.264000000    -2.027000000
O     3.771000000     4.325000000     0.497000000
H     3.148000000     4.264000000    -0.227000000
H     4.295000000     5.100000000     0.296000000
O    -4.399000000     1.198000000    -4.237000000
H    -5.002000000     1.757000000    -3.748000000
H    -4.425000000     0.359000000    -3.778000000
O     0.221000000     3.019000000    -3.865000000
H    -0.509000000     3.118000000    -4.476000000
H     0.731000000     2.289000000    -4.218000000
O     1.293000000     6.919000000     1.140000000
H     2.196000000     7.233000000     1.087000000
H     1.086000000     6.942000000     2.075000000
O    -1.936000000    -5.886000000    -3.266000000
H    -2.277000000    -6.678000000    -2.850000000
H    -1.879000000    -5.248000000    -2.554000000
O    -4.807000000    -0.950000000     1.983000000
H    -4.878000000    -0.554000000     2.851000000
H    -4.408000000    -0.270000000     1.441000000
O     2.162000000    -3.637000000    -1.062000000
H     2.712000000    -4.347000000    -1.392000000
H     1.725000000    -3.291000000    -1.841000000
O    -3.641000000    -6.192000000     1.756000000
H    -4.112000000    -6.438000000     2.553000000
H    -3.614000000    -5.236000000     1.780000000
O     1.895000000     4.150000000    -1.625000000
H     1.320000000     3.604000000    -2.161000000
H     1.413000000     4.970000000    -1.516000000
O    -0.678000000    -0.492000000     6.810000000
H    -0.415000000     0.420000000     6.937000000
H    -0.129000000    -0.802000000     6.091000000
O    -6.086000000    -3.290000000    -2.142000000
H    -5.652000000    -3.330000000    -1.290000000
H    -5.685000000    -3.996000000    -2.649000000
O     0.821000000    -0.949000000    -8.091000000
H     0.713000000    -1.009000000    -7.142000000
H     1.730000000    -0.674000000    -8.211000000
O    -5.024000000    -3.623000000     0.455000000
H    -4.135000000    -3.907000000     0.245000000
H    -4.905000000    -2.871000000     1.035000000
O    -4.253000000    -4.477000000    -4.734000000
H    -3.383000000    -4.840000000    -4.568000000
H    -4.843000000    -5.226000000    -4.656000000
O     2.308000000     3.744000000     2.453000000
H     1.483000000     3.636000000     1.981000000
H     2.923000000     4.059000000     1.791000000
O     5.697000000     3.173000000     2.214000000
H     6.462000000     2.840000000     1.744000000
H     5.056000000     3.357000000     1.527000000
O    -4.085000000     0.852000000    -0.162000000
H    -3.301000000     1.253000000    -0.538000000
H    -4.794000000     1.119000000    -0.747000000
O    -2.627000000    -0.627000000     4.476000000
H    -2.363000000    -0.354000000     5.355000000
H    -2.319000000    -1.530000000     4.403000000
O    -0.121000000     2.239000000     7.140000000
H     0.726000000     2.673000000     7.033000000
H    -0.748000000     2.832000000     6.726000000
O    -1.860000000     3.807000000     5.910000000
H    -1.247000000     3.666000000     5.188000000
H    -2.067000000     4.741000000     5.869000000
O     3.213000000    -0.543000000    -4.785000000
H     3.622000000    -1.383000000    -4.578000000
H     3.799000000     0.109000000    -4.401000000
O     1.040000000    -1.982000000    -5.699000000
H     0.600000000    -2.124000000    -4.861000000
H     1.907000000    -1.652000000    -5.462000000
O    -0.607000000     4.147000000     1.096000000
H    -1.219000000     3.708000000     0.505000000
H    -0.792000000     5.079000000     0.982000000
O     2.610000000    -4.158000000    -4.355000000
H     1.954000000    -3.546000000    -4.023000000
H     2.329000000    -5.012000000    -4.026000000
O     1.916000000    -1.929000000     1.674000000
H     1.564000000    -2.164000000     0.816000000
H     2.728000000    -1.460000000     1.480000000
O    -1.670000000    -3.098000000    -5.277000000
H    -1.594000000    -2.898000000    -4.344000000
H    -1.796000000    -2.246000000    -5.695000000
O    -2.203000000    -0.397000000    -5.792000000
H    -2.808000000    -0.005000000    -5.163000000
H    -2.033000000     0.299000000    -6.427000000
