158
-3055.44135
C     1.465000000     0.328000000    -0.241000000
H     2.458000000     0.748000000    -0.383000000
C     0.909000000     0.139000000     1.013000000
H     1.456000000     0.297000000     1.939000000
C    -0.457000000    -0.274000000     1.113000000
H    -0.800000000    -0.447000000     2.154000000
C    -1.249000000    -0.343000000    -0.026000000
H    -2.313000000    -0.525000000     0.101000000
C    -0.662000000    -0.167000000    -1.299000000
H    -1.355000000    -0.170000000    -2.137000000
C     0.685000000     0.080000000    -1.388000000
C     1.197000000     0.297000000    -2.759000000
O     2.234000000     0.928000000    -2.941000000
O     0.664000000    -0.181000000    -3.707000000
O     1.528000000    -2.411000000     4.069000000
H     2.054000000    -2.892000000     3.429000000
H     1.708000000    -1.490000000     3.882000000
O    -4.486000000    -1.688000000    -5.422000000
H    -4.423000000    -0.794000000    -5.758000000
H    -4.224000000    -1.618000000    -4.504000000
O     2.395000000     3.882000000    -5.052000000
H     2.280000000     3.473000000    -5.910000000
H     2.599000000     3.154000000    -4.466000000
O    -4.366000000     3.796000000     2.163000000
H    -4.750000000     4.671000000     2.221000000
H    -4.095000000     3.713000000     1.249000000
O     3.349000000     3.282000000     2.583000000
H     4.127000000     3.629000000     3.020000000
H     3.686000000     2.860000000     1.794000000
O     2.493000000    -3.695000000    -3.455000000
H     3.071000000    -4.036000000    -2.772000000
H     2.482000000    -4.379000000    -4.124000000
O    -3.342000000     4.029000000    -0.482000000
H    -3.236000000     4.324000000    -1.387000000
H    -2.473000000     3.720000000    -0.227000000
O    -1.771000000     1.656000000     7.446000000
H    -1.700000000     0.707000000     7.553000000
H    -0.892000000     1.934000000     7.190000000
O     1.132000000     4.091000000     0.624000000
H     1.687000000     3.755000000     1.327000000
H     1.719000000     4.630000000     0.093000000
O     2.538000000     0.645000000     4.432000000
H     2.020000000     1.158000000     5.053000000
H     3.085000000     1.291000000     3.985000000
O    -5.482000000    -2.939000000    -0.243000000
H    -5.743000000    -3.465000000    -0.999000000
H    -5.006000000    -3.550000000     0.321000000
O    -0.381000000     2.642000000    -3.907000000
H    -0.019000000     1.766000000    -3.771000000
H     0.327000000     3.235000000    -3.655000000
O    -2.490000000     1.925000000    -5.432000000
H    -1.665000000     2.324000000    -5.156000000
H    -2.791000000     2.475000000    -6.156000000
O    -4.071000000    -1.587000000    -2.759000000
H    -3.518000000    -2.260000000    -2.361000000
H    -4.802000000    -1.487000000    -2.151000000
O    -2.462000000     4.529000000    -3.070000000
H    -2.174000000     3.827000000    -3.653000000
H    -1.651000000     4.888000000    -2.709000000
O     4.685000000    -1.831000000     1.907000000
H     4.790000000    -1.752000000     2.855000000
H     5.136000000    -2.645000000     1.683000000
O    -2.007000000     2.096000000     3.808000000
H    -1.962000000     2.255000000     2.865000000
H    -1.545000000     2.838000000     4.198000000
O    -5.109000000    -0.751000000     3.640000000
H    -5.386000000    -0.639000000     2.731000000
H    -4.985000000     0.141000000     3.964000000
O     4.416000000    -1.424000000     4.751000000
H     3.884000000    -0.633000000     4.663000000
H     4.423000000    -1.604000000     5.691000000
O     5.227000000     0.633000000     0.924000000
H     4.989000000    -0.219000000     1.290000000
H     5.797000000     0.425000000     0.183000000
O     2.409000000     2.200000000    -7.296000000
H     2.420000000     1.250000000    -7.184000000
H     2.072000000     2.333000000    -8.183000000
O    -3.861000000    -4.644000000     0.951000000
H    -3.364000000    -5.419000000     0.689000000
H    -3.462000000    -4.371000000     1.777000000
O     4.460000000    -0.720000000    -2.829000000
H     3.962000000    -1.455000000    -2.471000000
H     3.883000000     0.036000000    -2.720000000
O    -0.586000000    -4.163000000     5.158000000
H     0.024000000    -3.701000000     4.583000000
H    -0.596000000    -3.644000000     5.963000000
O    -6.352000000    -0.752000000     1.096000000
H    -6.018000000    -1.587000000     0.770000000
H    -6.439000000    -0.207000000     0.314000000
O     6.816000000     0.223000000    -1.178000000
H     7.525000000    -0.023000000    -1.772000000
H     6.017000000     0.066000000    -1.681000000
O    -0.402000000    -3.905000000     1.193000000
H    -1.192000000    -3.569000000     0.770000000
H     0.319000000    -3.527000000     0.688000000
O     0.668000000     2.177000000     6.248000000
H     1.145000000     2.768000000     6.830000000
H     0.299000000     2.749000000     5.576000000
O     1.690000000    -0.474000000    -7.753000000
H     2.343000000    -0.972000000    -7.259000000
H     0.991000000    -0.304000000    -7.122000000
O    -1.161000000     2.758000000     0.771000000
H    -0.365000000     3.257000000     0.589000000
H    -1.005000000     1.903000000     0.370000000
O    -2.138000000    -3.355000000    -2.171000000
H    -1.285000000    -3.119000000    -2.535000000
H    -2.062000000    -4.288000000    -1.968000000
O    -3.851000000     1.368000000    -3.351000000
H    -3.689000000     0.430000000    -3.248000000
H    -3.504000000     1.576000000    -4.219000000
O    -0.491000000    -0.467000000    -6.051000000
H    -1.291000000     0.047000000    -5.937000000
H    -0.020000000    -0.363000000    -5.224000000
O     4.523000000     3.107000000     0.132000000
H     4.863000000     2.218000000     0.236000000
H     5.263000000     3.674000000     0.349000000
O     0.685000000     5.303000000    -3.026000000
H     0.812000000     6.169000000    -3.415000000
H     1.566000000     4.934000000    -2.970000000
O    -4.549000000     1.936000000     4.182000000
H    -4.417000000     2.408000000     3.359000000
H    -3.679000000     1.900000000     4.579000000
O     5.635000000     1.803000000    -5.191000000
H     5.282000000     0.956000000    -5.461000000
H     5.124000000     2.040000000    -4.417000000
O    -0.798000000    -5.960000000     3.126000000
H    -0.590000000    -5.167000000     2.632000000
H    -1.125000000    -5.639000000     3.967000000
O    -3.036000000    -3.320000000     3.240000000
H    -2.235000000    -3.569000000     3.701000000
H    -3.101000000    -2.373000000     3.367000000
O     1.997000000    -3.021000000     0.151000000
H     2.350000000    -2.267000000     0.623000000
H     2.751000000    -3.389000000    -0.310000000
O    -1.099000000    -2.301000000     7.031000000
H    -1.156000000    -1.461000000     6.575000000
H    -1.984000000    -2.663000000     6.977000000
O    -0.820000000    -2.452000000    -8.102000000
H    -1.313000000    -1.970000000    -8.766000000
H    -0.725000000    -1.834000000    -7.378000000
O    -0.230000000     4.138000000     4.755000000
H    -0.081000000     4.764000000     4.047000000
H    -0.314000000     4.679000000     5.540000000
O    -1.676000000    -0.499000000     5.146000000
H    -1.679000000     0.392000000     4.796000000
H    -1.058000000    -0.973000000     4.588000000
O     2.730000000    -1.774000000    -5.536000000
H     2.473000000    -1.038000000    -4.981000000
H     2.552000000    -2.549000000    -5.002000000
O     4.119000000     2.658000000    -3.073000000
H     3.443000000     1.986000000    -2.983000000
H     4.161000000     3.072000000    -2.211000000
O     6.592000000    -1.584000000    -4.230000000
H     5.867000000    -1.316000000    -3.665000000
H     6.181000000    -2.114000000    -4.913000000
O     0.011000000    -2.807000000    -3.705000000
H     0.933000000    -3.055000000    -3.643000000
H     0.027000000    -1.867000000    -3.886000000
