158
-3041.76847
C    -0.582000000    -0.341000000     1.320000000
H    -1.134000000    -0.311000000     2.256000000
C    -0.189000000     0.909000000     0.859000000
H    -0.474000000     1.810000000     1.397000000
C     0.387000000     1.082000000    -0.404000000
H     0.748000000     2.058000000    -0.807000000
C     0.564000000    -0.048000000    -1.221000000
H     1.119000000     0.095000000    -2.144000000
C     0.068000000    -1.325000000    -0.789000000
H     0.237000000    -2.136000000    -1.493000000
C    -0.487000000    -1.480000000     0.443000000
C    -0.741000000    -2.820000000     1.051000000
O    -0.634000000    -3.829000000     0.325000000
O    -0.915000000    -2.874000000     2.220000000
O    -3.245000000     1.585000000     0.817000000
H    -2.995000000     0.994000000     0.106000000
H    -2.806000000     2.410000000     0.609000000
O     0.630000000     5.097000000    -0.702000000
H     0.671000000     6.007000000    -0.994000000
H     0.303000000     4.616000000    -1.463000000
O     2.147000000     6.097000000    -3.649000000
H     2.367000000     6.882000000    -3.147000000
H     1.298000000     6.296000000    -4.044000000
O     2.931000000     3.466000000    -2.725000000
H     2.982000000     3.125000000    -3.618000000
H     2.723000000     4.394000000    -2.835000000
O    -3.418000000    -2.280000000     2.442000000
H    -2.497000000    -2.480000000     2.278000000
H    -3.885000000    -3.079000000     2.198000000
O    -4.460000000     0.175000000     2.955000000
H    -3.918000000     0.677000000     2.345000000
H    -3.942000000    -0.607000000     3.147000000
O     3.168000000    -4.728000000     3.799000000
H     2.860000000    -4.042000000     3.207000000
H     3.979000000    -4.379000000     4.168000000
O    -0.943000000     3.138000000     3.645000000
H    -0.059000000     2.814000000     3.475000000
H    -0.822000000     3.837000000     4.288000000
O     1.000000000     1.583000000    -4.174000000
H     1.894000000     1.590000000    -4.517000000
H     0.561000000     0.887000000    -4.664000000
O    -2.436000000    -4.396000000    -1.605000000
H    -2.559000000    -3.724000000    -2.276000000
H    -1.648000000    -4.124000000    -1.135000000
O     2.744000000    -0.679000000     0.998000000
H     2.225000000     0.122000000     0.924000000
H     3.254000000    -0.709000000     0.189000000
O     3.833000000     1.626000000     2.106000000
H     3.467000000     0.758000000     1.935000000
H     3.854000000     2.050000000     1.248000000
O     1.918000000    -2.772000000     2.752000000
H     2.495000000    -2.082000000     2.425000000
H     1.089000000    -2.627000000     2.294000000
O     2.163000000    -1.470000000    -5.159000000
H     2.403000000    -2.352000000    -4.874000000
H     1.215000000    -1.509000000    -5.286000000
O    -2.693000000    -4.989000000     5.668000000
H    -2.836000000    -4.062000000     5.863000000
H    -3.232000000    -5.157000000     4.895000000
O    -0.701000000     5.893000000    -4.191000000
H    -0.693000000     5.010000000    -3.822000000
H    -1.517000000     6.278000000    -3.874000000
O    -3.357000000     3.944000000    -0.658000000
H    -3.590000000     4.863000000    -0.526000000
H    -3.882000000     3.670000000    -1.410000000
O    -3.102000000     6.824000000     1.366000000
H    -2.501000000     6.080000000     1.327000000
H    -2.564000000     7.580000000     1.132000000
O    -0.440000000     0.129000000    -6.049000000
H    -1.261000000     0.603000000    -5.921000000
H    -0.558000000    -0.336000000    -6.877000000
O    -0.112000000     4.026000000    -6.434000000
H    -0.366000000     4.351000000    -5.570000000
H    -0.930000000     3.717000000    -6.823000000
O    -0.861000000    -2.517000000     5.084000000
H    -0.872000000    -2.472000000     4.128000000
H    -0.183000000    -3.162000000     5.286000000
O    -3.733000000     3.446000000     4.613000000
H    -3.360000000     2.974000000     3.868000000
H    -3.787000000     4.355000000     4.319000000
O    -1.858000000     1.242000000     6.279000000
H    -1.207000000     1.216000000     5.578000000
H    -1.785000000     0.387000000     6.704000000
O    -4.900000000    -4.478000000     1.571000000
H    -5.165000000    -5.002000000     0.815000000
H    -5.479000000    -4.765000000     2.277000000
O    -1.745000000    -2.227000000    -3.967000000
H    -2.006000000    -1.458000000    -3.460000000
H    -2.355000000    -2.246000000    -4.704000000
O    -0.367000000    -5.712000000     2.872000000
H    -0.641000000    -4.892000000     2.462000000
H     0.298000000    -6.065000000     2.281000000
O    -1.220000000     4.880000000     1.625000000
H    -0.539000000     4.636000000     0.998000000
H    -1.233000000     4.160000000     2.257000000
O    -2.029000000    -6.268000000     0.391000000
H    -1.741000000    -5.368000000     0.547000000
H    -2.383000000    -6.256000000    -0.498000000
O    -4.072000000    -2.243000000    -0.717000000
H    -4.270000000    -3.079000000    -0.295000000
H    -4.797000000    -1.670000000    -0.467000000
O     3.979000000     0.422000000    -4.337000000
H     3.667000000     0.482000000    -3.434000000
H     3.520000000    -0.336000000    -4.699000000
O     0.844000000    -4.786000000     5.795000000
H     1.546000000    -4.762000000     5.145000000
H     0.126000000    -5.242000000     5.356000000
O    -0.535000000    -8.546000000    -0.282000000
H    -0.182000000    -8.472000000     0.605000000
H    -0.973000000    -7.709000000    -0.436000000
O     3.444000000     1.861000000    -0.573000000
H     3.493000000     1.051000000    -1.080000000
H     3.112000000     2.511000000    -1.192000000
O     1.477000000    -5.844000000    -2.864000000
H     1.323000000    -5.100000000    -3.445000000
H     1.096000000    -6.591000000    -3.325000000
O     2.782000000     5.025000000     1.247000000
H     3.702000000     4.816000000     1.083000000
H     2.372000000     4.992000000     0.383000000
O    -2.862000000     1.121000000    -5.520000000
H    -3.469000000     0.383000000    -5.471000000
H    -2.815000000     1.453000000    -4.623000000
O    -2.456000000    -0.132000000    -1.253000000
H    -1.692000000    -0.300000000    -0.701000000
H    -3.057000000    -0.850000000    -1.054000000
O    -0.360000000     3.548000000    -2.944000000
H     0.243000000     2.916000000    -3.335000000
H    -1.147000000     3.039000000    -2.750000000
O     2.233000000    -6.599000000     1.896000000
H     2.639000000    -6.218000000     2.674000000
H     2.434000000    -5.980000000     1.194000000
O    -2.475000000     1.930000000    -2.820000000
H    -2.451000000     1.159000000    -2.255000000
H    -3.251000000     2.413000000    -2.535000000
O     4.232000000    -0.672000000    -1.434000000
H     3.973000000    -1.593000000    -1.394000000
H     5.189000000    -0.692000000    -1.446000000
O     0.411000000    -4.106000000    -4.645000000
H    -0.198000000    -3.471000000    -4.267000000
H     0.008000000    -4.359000000    -5.476000000
O    -4.501000000    -2.163000000     5.161000000
H    -4.215000000    -2.355000000     4.268000000
H    -5.155000000    -2.835000000     5.353000000
O     4.265000000    -3.970000000    -0.824000000
H     4.895000000    -4.427000000    -1.380000000
H     3.555000000    -4.600000000    -0.699000000
O     6.297000000     3.291000000    -1.931000000
H     6.571000000     2.634000000    -1.291000000
H     5.343000000     3.314000000    -1.856000000
O     1.773000000    -5.049000000    -0.282000000
H     0.885000000    -4.716000000    -0.150000000
H     1.751000000    -5.452000000    -1.150000000
O     3.436000000    -3.105000000    -3.458000000
H     4.349000000    -2.829000000    -3.385000000
H     3.219000000    -3.449000000    -2.592000000
O     1.885000000     3.553000000     3.393000000
H     2.102000000     3.972000000     2.560000000
H     2.601000000     2.934000000     3.543000000
