158
-3054.82659
C     0.763000000    -0.751000000    -1.020000000
H     1.461000000    -1.253000000    -1.685000000
C     1.277000000     0.278000000    -0.249000000
H     2.251000000     0.729000000    -0.423000000
C     0.451000000     0.901000000     0.651000000
H     0.835000000     1.741000000     1.284000000
C    -0.862000000     0.425000000     0.962000000
H    -1.506000000     0.910000000     1.691000000
C    -1.292000000    -0.650000000     0.225000000
H    -2.258000000    -1.092000000     0.454000000
C    -0.509000000    -1.239000000    -0.813000000
C    -1.143000000    -2.325000000    -1.684000000
O    -0.567000000    -2.712000000    -2.706000000
O    -2.239000000    -2.759000000    -1.346000000
O    -0.114000000    -1.262000000     4.720000000
H     0.459000000    -1.932000000     5.092000000
H    -0.998000000    -1.611000000     4.836000000
O     4.079000000     2.516000000     6.076000000
H     4.475000000     3.334000000     5.774000000
H     3.781000000     2.085000000     5.274000000
O     0.920000000    -6.925000000    -4.543000000
H     0.349000000    -7.551000000    -4.988000000
H     0.334000000    -6.432000000    -3.969000000
O     0.789000000     3.077000000    -4.955000000
H     0.036000000     2.499000000    -4.834000000
H     1.493000000     2.662000000    -4.456000000
O    -3.357000000    -3.479000000     1.156000000
H    -2.488000000    -3.717000000     1.478000000
H    -3.195000000    -3.090000000     0.296000000
O    -4.244000000     3.569000000     4.924000000
H    -4.724000000     3.836000000     4.140000000
H    -3.890000000     2.707000000     4.707000000
O    -3.961000000    -5.852000000    -4.017000000
H    -3.568000000    -6.252000000    -3.241000000
H    -3.743000000    -6.450000000    -4.731000000
O    -5.277000000     4.222000000     2.064000000
H    -4.556000000     4.055000000     1.457000000
H    -5.075000000     5.076000000     2.447000000
O     2.716000000    -1.400000000    -6.623000000
H     2.658000000    -0.459000000    -6.787000000
H     1.972000000    -1.589000000    -6.052000000
O    -3.211000000     3.865000000     0.285000000
H    -3.001000000     4.090000000    -0.621000000
H    -2.398000000     4.018000000     0.765000000
O     3.067000000    -5.543000000    -0.832000000
H     3.820000000    -6.000000000    -0.457000000
H     3.400000000    -5.157000000    -1.642000000
O     3.849000000    -1.596000000    -3.473000000
H     3.443000000    -2.440000000    -3.276000000
H     4.321000000    -1.743000000    -4.293000000
O     2.823000000     3.690000000    -1.901000000
H     1.903000000     3.654000000    -2.163000000
H     3.188000000     4.418000000    -2.405000000
O    -2.447000000     6.719000000     0.483000000
H    -2.310000000     7.167000000     1.317000000
H    -1.852000000     5.970000000     0.512000000
O     4.532000000    -0.496000000     1.469000000
H     4.386000000     0.417000000     1.219000000
H     4.543000000    -0.972000000     0.639000000
O    -3.381000000    -1.057000000    -4.037000000
H    -3.445000000    -1.687000000    -3.319000000
H    -2.987000000    -1.552000000    -4.755000000
O     1.376000000     3.393000000     3.041000000
H     1.837000000     3.451000000     2.203000000
H     1.611000000     2.531000000     3.383000000
O    -6.480000000    -2.592000000    -4.276000000
H    -6.664000000    -3.526000000    -4.378000000
H    -5.717000000    -2.560000000    -3.699000000
O     3.811000000     1.220000000     3.759000000
H     4.378000000     0.501000000     3.483000000
H     2.926000000     0.859000000     3.713000000
O     0.333000000    -4.889000000     0.953000000
H     0.862000000    -5.530000000     0.477000000
H     0.803000000    -4.063000000     0.843000000
O     1.376000000     0.340000000     3.278000000
H     0.926000000    -0.197000000     3.930000000
H     1.069000000     0.003000000     2.437000000
O    -1.309000000     2.789000000     3.891000000
H    -1.462000000     2.398000000     4.751000000
H    -0.429000000     3.160000000     3.949000000
O    -3.903000000     0.264000000     3.653000000
H    -4.010000000    -0.109000000     2.778000000
H    -4.713000000     0.038000000     4.110000000
O     4.428000000     2.028000000     0.357000000
H     3.987000000     2.720000000    -0.136000000
H     4.858000000     1.494000000    -0.311000000
O    -1.433000000     1.673000000    -4.392000000
H    -1.978000000     2.317000000    -3.940000000
H    -1.929000000     0.857000000    -4.334000000
O     0.157000000     3.350000000    -1.372000000
H    -0.270000000     2.855000000    -0.673000000
H    -0.560000000     3.794000000    -1.824000000
O    -0.722000000    -5.565000000    -2.583000000
H    -0.450000000    -5.728000000    -1.680000000
H    -0.957000000    -4.637000000    -2.599000000
O    -5.300000000    -2.543000000     3.029000000
H    -4.497000000    -3.031000000     3.211000000
H    -5.078000000    -1.985000000     2.284000000
O     4.055000000    -2.522000000    -0.497000000
H     5.006000000    -2.459000000    -0.410000000
H     3.915000000    -2.791000000    -1.405000000
O    -0.223000000     1.203000000     6.550000000
H     0.706000000     1.243000000     6.778000000
H    -0.266000000     0.567000000     5.835000000
O    -6.517000000     1.865000000     1.527000000
H    -5.828000000     1.200000000     1.500000000
H    -6.059000000     2.674000000     1.755000000
O    -5.581000000    -1.979000000    -0.298000000
H    -5.774000000    -2.787000000     0.177000000
H    -5.331000000    -2.270000000    -1.175000000
O    -5.978000000    -4.780000000     1.314000000
H    -6.138000000    -4.925000000     2.246000000
H    -5.099000000    -4.402000000     1.278000000
O    -4.408000000    -3.315000000    -2.370000000
H    -3.588000000    -3.002000000    -1.987000000
H    -4.172000000    -4.137000000    -2.802000000
O     2.334000000     4.672000000     0.770000000
H     3.182000000     5.114000000     0.732000000
H     2.262000000     4.220000000    -0.071000000
O     6.444000000     3.112000000     2.300000000
H     7.251000000     2.695000000     1.996000000
H     5.754000000     2.709000000     1.773000000
O    -4.543000000     0.129000000     0.881000000
H    -3.902000000     0.567000000     0.321000000
H    -5.010000000    -0.464000000     0.292000000
O    -3.404000000    -7.500000000    -1.629000000
H    -2.595000000    -7.352000000    -1.138000000
H    -4.045000000    -7.751000000    -0.964000000
O    -3.011000000    -1.934000000     5.397000000
H    -3.127000000    -1.177000000     4.822000000
H    -3.734000000    -1.873000000     6.021000000
O     2.487000000     1.077000000    -3.365000000
H     3.015000000     0.344000000    -3.047000000
H     2.506000000     1.713000000    -2.650000000
O     2.826000000     5.619000000     3.875000000
H     3.695000000     5.222000000     3.813000000
H     2.225000000     4.924000000     3.609000000
O     0.564000000    -1.313000000    -4.862000000
H     0.157000000    -1.961000000    -4.287000000
H     0.487000000    -0.487000000    -4.384000000
O    -0.898000000     4.408000000     1.314000000
H     0.029000000     4.639000000     1.261000000
H    -0.978000000     3.925000000     2.136000000
O     4.980000000     0.719000000    -1.836000000
H     5.339000000     1.293000000    -2.513000000
H     5.465000000    -0.101000000    -1.937000000
O     2.388000000    -3.691000000    -3.428000000
H     1.561000000    -3.361000000    -3.075000000
H     2.128000000    -4.258000000    -4.155000000
O     1.884000000    -2.598000000     1.240000000
H     1.482000000    -1.949000000     0.662000000
H     2.753000000    -2.745000000     0.868000000
O    -2.982000000    -3.489000000    -5.265000000
H    -3.659000000    -4.094000000    -4.962000000
H    -2.168000000    -3.986000000    -5.197000000
O    -0.960000000    -1.156000000    -7.270000000
H    -0.673000000    -1.430000000    -6.399000000
H    -0.607000000    -0.272000000    -7.372000000
