158
-3019.91813
C     1.060000000     0.599000000     0.914000000
H     1.823000000     0.880000000     1.635000000
C    -0.213000000     0.056000000     1.291000000
H    -0.486000000    -0.059000000     2.337000000
C    -1.128000000    -0.305000000     0.311000000
H    -2.063000000    -0.693000000     0.647000000
C    -0.741000000    -0.338000000    -1.029000000
H    -1.427000000    -0.710000000    -1.786000000
C     0.527000000     0.089000000    -1.333000000
H     0.739000000     0.067000000    -2.399000000
C     1.482000000     0.497000000    -0.415000000
C     2.899000000     0.586000000    -0.785000000
O     3.250000000     0.535000000    -1.964000000
O     3.702000000     0.681000000     0.151000000
O    -2.718000000     1.636000000     2.581000000
H    -3.018000000     2.279000000     3.223000000
H    -1.977000000     1.203000000     3.005000000
O     6.260000000    -1.476000000    -4.538000000
H     6.572000000    -2.067000000    -5.223000000
H     5.436000000    -1.129000000    -4.878000000
O    -2.440000000    -0.690000000     3.934000000
H    -3.036000000    -0.445000000     3.226000000
H    -2.888000000    -1.405000000     4.387000000
O    -0.804000000    -5.423000000     1.806000000
H    -1.175000000    -6.258000000     2.092000000
H    -1.564000000    -4.898000000     1.554000000
O    -5.351000000    -0.587000000     1.646000000
H    -5.240000000    -0.171000000     2.501000000
H    -5.438000000     0.143000000     1.033000000
O    -5.570000000    -0.562000000    -4.864000000
H    -6.350000000    -0.097000000    -4.564000000
H    -4.945000000    -0.470000000    -4.145000000
O    -4.570000000    -2.446000000     4.337000000
H    -4.467000000    -3.237000000     4.866000000
H    -5.466000000    -2.495000000     4.004000000
O    -5.297000000     4.785000000     1.879000000
H    -4.965000000     4.452000000     2.712000000
H    -5.021000000     4.134000000     1.233000000
O    -6.236000000     2.046000000    -1.077000000
H    -5.355000000     2.364000000    -0.881000000
H    -6.789000000     2.440000000    -0.402000000
O     4.588000000     3.685000000    -5.988000000
H     4.840000000     3.136000000    -6.732000000
H     4.958000000     3.239000000    -5.226000000
O     3.694000000    -0.651000000     2.408000000
H     4.534000000    -0.239000000     2.608000000
H     3.577000000    -0.511000000     1.468000000
O     4.014000000     0.069000000    -4.935000000
H     3.745000000     0.382000000    -4.072000000
H     3.366000000     0.438000000    -5.536000000
O    -1.987000000     1.709000000    -4.200000000
H    -1.348000000     2.422000000    -4.195000000
H    -2.148000000     1.539000000    -5.128000000
O    -0.350000000    -3.505000000    -1.972000000
H     0.175000000    -3.234000000    -1.219000000
H    -1.212000000    -3.122000000    -1.813000000
O     2.006000000     1.774000000    -5.590000000
H     1.582000000     2.391000000    -6.186000000
H     1.309000000     1.171000000    -5.333000000
O    -0.494000000     4.075000000    -4.159000000
H     0.285000000     4.474000000    -3.772000000
H    -0.576000000     4.492000000    -5.017000000
O    -1.042000000    -0.548000000     6.808000000
H    -0.872000000    -1.440000000     7.112000000
H    -0.596000000    -0.494000000     5.962000000
O     3.183000000    -2.362000000    -2.256000000
H     2.994000000    -1.445000000    -2.457000000
H     2.382000000    -2.829000000    -2.494000000
O     5.888000000    -2.530000000    -1.930000000
H     6.142000000    -2.224000000    -2.801000000
H     4.935000000    -2.602000000    -1.970000000
O     6.149000000     2.835000000    -3.741000000
H     5.477000000     2.155000000    -3.782000000
H     6.240000000     3.027000000    -2.808000000
O     1.494000000    -0.429000000     4.470000000
H     2.023000000    -0.336000000     3.678000000
H     1.090000000     0.430000000     4.591000000
O    -6.087000000    -1.499000000    -1.206000000
H    -5.459000000    -0.891000000    -1.597000000
H    -5.795000000    -1.594000000    -0.299000000
O     8.441000000     0.591000000    -1.426000000
H     7.502000000     0.631000000    -1.607000000
H     8.807000000     0.105000000    -2.165000000
O    -0.236000000     5.038000000     0.663000000
H    -1.066000000     5.506000000     0.756000000
H    -0.379000000     4.441000000    -0.071000000
O     3.460000000     4.977000000    -0.108000000
H     2.711000000     4.480000000     0.221000000
H     4.224000000     4.507000000     0.225000000
O     8.105000000    -0.034000000     1.400000000
H     7.481000000     0.674000000     1.558000000
H     8.367000000     0.077000000     0.486000000
O    -3.946000000     2.509000000     0.337000000
H    -3.834000000     1.695000000     0.829000000
H    -3.081000000     2.920000000     0.355000000
O     2.502000000    -3.155000000    -5.136000000
H     2.330000000    -3.666000000    -4.345000000
H     2.339000000    -3.766000000    -5.855000000
O     3.475000000    -3.274000000     2.542000000
H     3.554000000    -2.323000000     2.472000000
H     2.564000000    -3.420000000     2.797000000
O     3.037000000     2.850000000    -3.219000000
H     2.438000000     2.707000000    -3.951000000
H     3.102000000     1.995000000    -2.793000000
O    -3.235000000    -3.219000000    -1.225000000
H    -3.770000000    -3.855000000    -1.700000000
H    -3.621000000    -3.187000000    -0.350000000
O     6.730000000     3.078000000    -1.182000000
H     7.577000000     2.632000000    -1.188000000
H     6.256000000     2.681000000    -0.452000000
O     3.825000000     5.494000000    -4.097000000
H     3.447000000     4.812000000    -3.541000000
H     4.133000000     5.026000000    -4.874000000
O     6.815000000    -2.622000000     0.816000000
H     7.114000000    -1.785000000     1.172000000
H     6.425000000    -2.399000000    -0.029000000
O     0.564000000     2.215000000     4.893000000
H    -0.263000000     2.634000000     5.130000000
H     1.186000000     2.524000000     5.551000000
O    -3.084000000    -2.386000000    -4.383000000
H    -3.372000000    -2.271000000    -5.288000000
H    -3.026000000    -3.334000000    -4.268000000
O    -4.411000000    -3.900000000     1.493000000
H    -4.135000000    -3.700000000     2.388000000
H    -5.259000000    -4.330000000     1.595000000
O    -1.540000000    -4.062000000     4.927000000
H    -1.470000000    -3.293000000     5.492000000
H    -0.794000000    -4.609000000     5.172000000
O     0.445000000     4.647000000     3.290000000
H    -0.019000000     3.869000000     3.597000000
H     0.535000000     4.516000000     2.346000000
O     0.860000000    -1.005000000    -5.210000000
H     0.062000000    -1.531000000    -5.260000000
H     1.566000000    -1.646000000    -5.136000000
O     5.774000000     0.234000000    -1.836000000
H     5.847000000    -0.716000000    -1.928000000
H     4.832000000     0.401000000    -1.813000000
O     5.558000000     2.034000000     1.298000000
H     5.245000000     2.260000000     2.174000000
H     4.831000000     1.554000000     0.901000000
O     1.796000000    -4.557000000    -3.054000000
H     0.898000000    -4.408000000    -2.760000000
H     2.239000000    -4.930000000    -2.292000000
O    -3.822000000    -0.026000000    -2.585000000
H    -3.438000000    -0.892000000    -2.451000000
H    -3.070000000     0.565000000    -2.629000000
O    -7.172000000    -3.492000000    -2.741000000
H    -6.872000000    -2.796000000    -2.155000000
H    -8.021000000    -3.186000000    -3.061000000
O     0.375000000    -2.847000000     3.020000000
H     0.694000000    -2.102000000     3.529000000
H    -0.402000000    -3.145000000     3.493000000
O    -0.651000000     2.846000000    -0.974000000
H    -0.922000000     3.054000000    -1.868000000
H    -0.457000000     1.909000000    -0.996000000
O     0.924000000    -2.803000000     0.301000000
H     1.152000000    -1.896000000     0.099000000
H     0.516000000    -2.761000000     1.166000000
