158
-3024.45856
C     0.360000000    -0.799000000    -1.181000000
H     0.675000000    -1.377000000    -2.046000000
C     1.197000000    -0.008000000    -0.470000000
H     2.210000000     0.079000000    -0.853000000
C     0.825000000     0.669000000     0.646000000
H     1.486000000     1.344000000     1.206000000
C    -0.425000000     0.433000000     1.141000000
H    -0.838000000     1.002000000     1.970000000
C    -1.343000000    -0.409000000     0.536000000
H    -2.390000000    -0.401000000     0.831000000
C    -0.964000000    -0.976000000    -0.687000000
C    -1.990000000    -1.775000000    -1.410000000
O    -1.834000000    -1.942000000    -2.620000000
O    -3.134000000    -2.066000000    -0.955000000
O    -2.476000000    -4.035000000    -5.681000000
H    -2.162000000    -3.553000000    -6.446000000
H    -3.412000000    -4.154000000    -5.841000000
O    -2.534000000    -6.264000000    -3.881000000
H    -2.370000000    -5.517000000    -4.456000000
H    -3.470000000    -6.216000000    -3.686000000
O     3.050000000    -2.385000000     0.490000000
H     2.583000000    -3.142000000     0.133000000
H     2.391000000    -1.692000000     0.525000000
O     3.497000000     5.928000000    -0.435000000
H     3.019000000     6.597000000    -0.926000000
H     4.239000000     6.397000000    -0.053000000
O     2.922000000     3.120000000    -2.085000000
H     3.707000000     3.366000000    -2.573000000
H     3.138000000     3.307000000    -1.171000000
O     4.642000000    -2.149000000     5.190000000
H     4.869000000    -2.821000000     4.548000000
H     3.774000000    -1.846000000     4.923000000
O    -0.363000000    -2.742000000    -4.530000000
H    -0.984000000    -3.228000000    -5.073000000
H    -0.892000000    -2.395000000    -3.812000000
O     1.088000000     5.565000000     4.909000000
H     0.593000000     6.359000000     5.111000000
H     1.690000000     5.828000000     4.213000000
O    -1.334000000     4.852000000     1.886000000
H    -2.175000000     4.447000000     1.674000000
H    -0.878000000     4.194000000     2.411000000
O    -5.008000000    -0.887000000     2.212000000
H    -5.599000000    -0.967000000     2.961000000
H    -5.404000000    -0.207000000     1.667000000
O     3.064000000     1.048000000    -3.675000000
H     2.298000000     0.575000000    -3.999000000
H     2.701000000     1.747000000    -3.129000000
O     0.249000000     2.264000000    -5.499000000
H     0.421000000     1.512000000    -4.932000000
H    -0.183000000     1.891000000    -6.267000000
O     3.608000000     3.595000000     4.992000000
H     3.825000000     4.291000000     5.612000000
H     2.678000000     3.424000000     5.141000000
O     0.927000000    -0.386000000    -5.069000000
H     1.085000000    -0.281000000    -6.007000000
H     0.331000000    -1.132000000    -5.008000000
O     5.075000000     3.718000000     2.628000000
H     5.241000000     4.660000000     2.608000000
H     4.401000000     3.608000000     3.299000000
O    -2.791000000     3.314000000    -1.725000000
H    -3.480000000     2.677000000    -1.536000000
H    -1.990000000     2.793000000    -1.778000000
O    -5.486000000    -3.296000000    -2.133000000
H    -4.716000000    -2.999000000    -1.647000000
H    -5.875000000    -2.493000000    -2.478000000
O     5.351000000     2.663000000     0.107000000
H     5.442000000     1.748000000     0.373000000
H     5.426000000     3.158000000     0.924000000
O     2.024000000    -1.818000000     4.575000000
H     1.182000000    -1.998000000     4.156000000
H     1.867000000    -1.977000000     5.505000000
O     0.204000000     3.152000000     3.763000000
H     0.111000000     2.519000000     4.475000000
H     0.564000000     3.933000000     4.183000000
O    -2.856000000     2.075000000     3.753000000
H    -2.682000000     2.778000000     3.127000000
H    -2.343000000     1.335000000     3.431000000
O    -3.884000000    -1.750000000    -4.263000000
H    -3.249000000    -2.010000000    -3.595000000
H    -4.438000000    -2.522000000    -4.380000000
O    -0.420000000     2.446000000    -2.002000000
H     0.251000000     2.471000000    -1.321000000
H    -0.218000000     1.659000000    -2.509000000
O    -2.598000000    -5.071000000    -1.157000000
H    -2.271000000    -5.265000000    -2.035000000
H    -3.356000000    -4.505000000    -1.303000000
O    -6.713000000    -5.820000000    -1.205000000
H    -6.311000000    -5.011000000    -1.521000000
H    -7.290000000    -5.540000000    -0.495000000
O     5.357000000    -3.125000000    -0.958000000
H     4.943000000    -2.521000000    -1.574000000
H     4.775000000    -3.129000000    -0.199000000
O    -2.151000000     2.262000000     6.376000000
H    -2.531000000     2.121000000     5.509000000
H    -1.414000000     1.653000000     6.417000000
O    -0.005000000     6.411000000     0.249000000
H     0.835000000     5.960000000     0.336000000
H    -0.536000000     6.071000000     0.970000000
O     3.349000000     0.393000000     3.367000000
H     2.873000000    -0.321000000     3.791000000
H     2.989000000     1.188000000     3.761000000
O     6.691000000     3.403000000    -2.253000000
H     6.374000000     3.176000000    -1.379000000
H     5.899000000     3.460000000    -2.788000000
O     4.528000000    -1.278000000    -2.855000000
H     4.278000000    -0.357000000    -2.777000000
H     3.869000000    -1.657000000    -3.436000000
O     6.854000000     1.365000000     3.228000000
H     6.440000000     0.900000000     2.501000000
H     6.171000000     1.422000000     3.896000000
O    -5.308000000    -1.322000000    -7.070000000
H    -4.519000000    -1.402000000    -6.534000000
H    -5.556000000    -0.401000000    -6.995000000
O    -1.048000000    -1.763000000     3.931000000
H    -1.613000000    -1.944000000     4.682000000
H    -1.429000000    -2.273000000     3.216000000
O    -5.456000000     2.433000000     4.786000000
H    -6.202000000     2.582000000     4.205000000
H    -4.692000000     2.486000000     4.213000000
O     2.116000000    -4.708000000    -1.695000000
H     2.960000000    -5.134000000    -1.846000000
H     1.621000000    -5.336000000    -1.170000000
O    -0.827000000     0.278000000    -7.543000000
H    -1.465000000     0.155000000    -6.841000000
H    -1.193000000     0.983000000    -8.078000000
O    -5.081000000    -5.558000000     2.092000000
H    -4.541000000    -4.789000000     1.913000000
H    -5.534000000    -5.348000000     2.908000000
O     2.587000000    -3.022000000    -3.945000000
H     1.713000000    -2.695000000    -4.158000000
H     2.460000000    -3.551000000    -3.157000000
O     2.746000000     5.845000000     2.501000000
H     3.588000000     6.277000000     2.650000000
H     2.978000000     4.984000000     2.153000000
O    -0.971000000    -4.807000000     0.790000000
H    -1.599000000    -4.607000000     0.095000000
H    -1.492000000    -4.801000000     1.593000000
O     5.173000000    -0.110000000     1.561000000
H     4.799000000    -0.885000000     1.142000000
H     4.555000000     0.106000000     2.260000000
O    -5.976000000     1.215000000     0.256000000
H    -6.746000000     0.840000000    -0.173000000
H    -5.233000000     0.844000000    -0.220000000
O     0.400000000     0.814000000     5.176000000
H     0.599000000     0.491000000     6.055000000
H     0.277000000     0.022000000     4.652000000
O    -2.451000000     0.474000000    -5.477000000
H    -2.871000000     1.207000000    -5.027000000
H    -2.790000000    -0.304000000    -5.035000000
O    -3.454000000    -3.225000000     1.439000000
H    -3.216000000    -2.893000000     0.574000000
H    -3.884000000    -2.485000000     1.869000000
O    -3.959000000     0.716000000    -1.587000000
H    -3.603000000    -0.037000000    -1.114000000
H    -4.042000000     0.413000000    -2.491000000
O    -3.724000000     3.334000000     1.613000000
H    -4.524000000     3.852000000     1.528000000
H    -3.864000000     2.582000000     1.037000000
