158
-3049.10652
C    -0.195000000     0.115000000    -1.468000000
H    -0.254000000     0.199000000    -2.550000000
C     1.022000000     0.314000000    -0.753000000
H     1.909000000     0.469000000    -1.362000000
C     1.054000000     0.144000000     0.650000000
H     2.055000000     0.267000000     1.214000000
C    -0.098000000    -0.116000000     1.332000000
H    -0.062000000    -0.086000000     2.418000000
C    -1.302000000    -0.372000000     0.585000000
H    -2.160000000    -0.499000000     1.240000000
C    -1.380000000    -0.369000000    -0.784000000
C    -2.659000000    -0.423000000    -1.518000000
O    -2.669000000    -0.244000000    -2.704000000
O    -3.701000000    -0.781000000    -0.955000000
O     5.834000000    -3.040000000    -1.695000000
H     5.061000000    -2.725000000    -1.227000000
H     6.001000000    -2.371000000    -2.359000000
O    -0.509000000    -3.825000000    -4.217000000
H    -1.305000000    -3.299000000    -4.286000000
H     0.018000000    -3.563000000    -4.972000000
O    -6.937000000     0.758000000    -1.373000000
H    -6.219000000     0.552000000    -0.774000000
H    -7.631000000     0.143000000    -1.135000000
O    -4.138000000    -2.477000000     1.009000000
H    -5.021000000    -2.602000000     0.661000000
H    -3.715000000    -1.888000000     0.384000000
O     1.355000000     4.906000000     3.474000000
H     2.115000000     4.331000000     3.379000000
H     1.691000000     5.673000000     3.936000000
O    -3.699000000    -1.201000000     4.509000000
H    -3.793000000    -0.971000000     5.433000000
H    -4.565000000    -1.040000000     4.133000000
O     3.320000000    -0.862000000    -5.072000000
H     2.518000000    -0.366000000    -4.908000000
H     3.020000000    -1.757000000    -5.232000000
O    -0.162000000     3.873000000    -3.074000000
H     0.271000000     4.135000000    -3.886000000
H     0.555000000     3.656000000    -2.478000000
O     1.120000000     0.982000000    -5.203000000
H     0.207000000     0.889000000    -4.933000000
H     1.186000000     1.883000000    -5.520000000
O     4.627000000     2.636000000    -2.608000000
H     4.443000000     1.953000000    -1.963000000
H     5.460000000     3.014000000    -2.325000000
O     3.524000000     3.204000000     4.020000000
H     4.147000000     3.912000000     4.187000000
H     3.146000000     3.012000000     4.878000000
O    -5.105000000    -2.652000000    -2.277000000
H    -4.837000000    -2.086000000    -1.553000000
H    -5.798000000    -2.163000000    -2.720000000
O     3.932000000    -5.378000000    -0.263000000
H     4.083000000    -5.424000000    -1.207000000
H     3.419000000    -4.579000000    -0.141000000
O    -2.693000000     4.452000000    -3.460000000
H    -2.726000000     5.408000000    -3.425000000
H    -1.904000000     4.221000000    -2.970000000
O     3.306000000     5.113000000    -2.870000000
H     3.799000000     4.303000000    -2.737000000
H     3.961000000     5.807000000    -2.791000000
O     4.972000000    -0.208000000     5.717000000
H     4.669000000    -1.063000000     5.414000000
H     4.425000000    -0.016000000     6.479000000
O     3.911000000    -2.446000000     4.599000000
H     3.954000000    -3.257000000     5.104000000
H     2.986000000    -2.201000000     4.616000000
O     3.241000000     2.990000000     1.093000000
H     3.112000000     2.815000000     2.025000000
H     3.588000000     2.170000000     0.742000000
O    -3.370000000     1.215000000     2.916000000
H    -2.658000000     0.664000000     3.241000000
H    -3.733000000     1.625000000     3.702000000
O    -5.425000000     3.757000000    -4.622000000
H    -5.098000000     2.980000000    -4.168000000
H    -4.708000000     4.388000000    -4.565000000
O     1.571000000    -2.806000000     1.557000000
H     0.708000000    -2.427000000     1.389000000
H     1.760000000    -2.577000000     2.467000000
O     6.220000000    -0.536000000     0.922000000
H     6.705000000    -1.309000000     1.212000000
H     5.707000000    -0.274000000     1.686000000
O    -3.006000000    -2.529000000    -4.034000000
H    -2.692000000    -1.635000000    -3.898000000
H    -3.711000000    -2.634000000    -3.395000000
O     1.462000000     3.409000000    -0.857000000
H     1.165000000     2.589000000    -0.463000000
H     2.411000000     3.406000000    -0.730000000
O    -5.763000000    -5.128000000    -1.271000000
H    -5.750000000    -5.748000000    -2.000000000
H    -5.278000000    -4.369000000    -1.593000000
O     7.650000000    -0.052000000    -1.244000000
H     6.954000000    -0.210000000    -1.882000000
H     7.243000000    -0.230000000    -0.396000000
O    -0.205000000     2.306000000     3.542000000
H     0.387000000     3.058000000     3.521000000
H    -0.758000000     2.417000000     2.769000000
O    -2.996000000    -5.150000000     2.011000000
H    -2.622000000    -5.614000000     1.262000000
H    -3.231000000    -4.288000000     1.665000000
O    -0.964000000    -0.806000000     5.854000000
H    -1.901000000    -0.991000000     5.781000000
H    -0.917000000     0.139000000     5.997000000
O     1.061000000     5.741000000     0.893000000
H     1.021000000     5.435000000     1.799000000
H     0.720000000     5.011000000     0.377000000
O     5.102000000     0.739000000     3.028000000
H     4.921000000     0.477000000     3.930000000
H     4.922000000     1.679000000     3.011000000
O    -6.177000000     3.004000000     0.772000000
H    -6.024000000     2.061000000     0.828000000
H    -6.621000000     3.224000000     1.591000000
O     5.755000000    -0.728000000    -3.359000000
H     4.866000000    -0.758000000    -3.713000000
H     6.253000000    -0.224000000    -4.003000000
O     6.263000000    -2.205000000     3.156000000
H     6.253000000    -3.017000000     2.648000000
H     5.447000000    -2.226000000     3.657000000
O    -4.136000000     0.648000000    -5.960000000
H    -3.254000000     0.858000000    -5.655000000
H    -4.633000000     0.478000000    -5.159000000
O     1.027000000    -2.161000000     4.105000000
H     0.781000000    -1.499000000     4.751000000
H     0.206000000    -2.606000000     3.894000000
O     3.179000000    -2.162000000    -0.582000000
H     2.695000000    -2.599000000    -1.283000000
H     2.604000000    -2.224000000     0.181000000
O    -6.802000000    -3.027000000     0.385000000
H    -6.964000000    -3.885000000    -0.008000000
H    -6.791000000    -3.194000000     1.328000000
O     1.976000000    -3.415000000    -2.454000000
H     1.033000000    -3.580000000    -2.490000000
H     2.243000000    -3.356000000    -3.371000000
O     4.678000000     5.176000000     1.666000000
H     4.563000000     5.900000000     1.051000000
H     4.314000000     4.416000000     1.211000000
O    -3.124000000    -3.080000000    -6.634000000
H    -3.781000000    -2.397000000    -6.766000000
H    -3.019000000    -3.130000000    -5.683000000
O     4.340000000     0.760000000    -0.614000000
H     3.754000000     0.096000000    -0.977000000
H     5.034000000     0.258000000    -0.187000000
O    -5.281000000     0.491000000     0.930000000
H    -5.097000000     0.401000000     1.865000000
H    -4.584000000    -0.004000000     0.500000000
O    -1.125000000     1.895000000     6.118000000
H    -0.788000000     2.048000000     5.235000000
H    -1.922000000     2.422000000     6.166000000
O    -1.800000000     1.621000000    -4.432000000
H    -2.211000000     1.039000000    -3.793000000
H    -1.598000000     2.416000000    -3.938000000
O    -1.496000000    -3.006000000     3.165000000
H    -2.170000000    -2.466000000     3.578000000
H    -1.840000000    -3.898000000     3.215000000
O    -4.946000000     1.783000000    -2.664000000
H    -4.352000000     1.054000000    -2.485000000
H    -5.761000000     1.542000000    -2.223000000
O    -2.447000000     4.014000000     1.614000000
H    -2.847000000     4.135000000     2.475000000
H    -2.671000000     3.117000000     1.370000000
