158
-3019.70646
C    -0.084000000    -1.437000000    -0.284000000
H     0.056000000    -2.452000000    -0.646000000
C     1.082000000    -0.720000000    -0.143000000
H     2.036000000    -1.218000000    -0.290000000
C     1.055000000     0.564000000     0.318000000
H     1.926000000     1.057000000     0.059000000
C    -0.178000000     1.243000000     0.458000000
H    -0.147000000     2.321000000     0.595000000
C    -1.321000000     0.591000000     0.223000000
H    -2.299000000     1.051000000     0.339000000
C    -1.322000000    -0.801000000    -0.153000000
C    -2.618000000    -1.536000000    -0.539000000
O    -2.561000000    -2.656000000    -1.008000000
O    -3.692000000    -1.041000000    -0.291000000
O    -3.708000000    -4.764000000    -4.118000000
H    -3.214000000    -4.561000000    -4.913000000
H    -3.987000000    -3.911000000    -3.785000000
O     1.761000000    -3.705000000     1.415000000
H     2.460000000    -4.358000000     1.376000000
H     0.977000000    -4.175000000     1.130000000
O     1.646000000     4.566000000    -0.907000000
H     0.859000000     4.329000000    -0.416000000
H     1.318000000     4.877000000    -1.750000000
O     4.086000000     2.739000000    -3.254000000
H     4.766000000     2.614000000    -2.593000000
H     4.531000000     3.184000000    -3.975000000
O     3.728000000    -0.964000000     4.441000000
H     3.307000000    -1.819000000     4.533000000
H     3.379000000    -0.446000000     5.167000000
O    -3.260000000     0.892000000    -2.916000000
H    -3.520000000     0.868000000    -1.995000000
H    -4.032000000     0.584000000    -3.390000000
O     5.004000000     2.005000000     5.502000000
H     4.103000000     2.035000000     5.180000000
H     5.231000000     2.921000000     5.664000000
O     2.943000000     5.793000000     4.633000000
H     2.825000000     6.737000000     4.734000000
H     3.213000000     5.682000000     3.721000000
O    -4.419000000    -6.669000000    -1.764000000
H    -3.575000000    -7.062000000    -1.984000000
H    -4.428000000    -5.839000000    -2.243000000
O    -1.450000000     5.356000000     1.855000000
H    -2.258000000     5.020000000     1.466000000
H    -1.405000000     4.938000000     2.714000000
O     2.877000000    -0.409000000    -2.771000000
H     2.110000000    -0.969000000    -2.895000000
H     2.516000000     0.469000000    -2.649000000
O     5.513000000    -0.579000000    -3.376000000
H     4.778000000    -0.298000000    -2.832000000
H     6.076000000     0.193000000    -3.435000000
O     1.438000000     2.641000000    -4.216000000
H     2.267000000     2.529000000    -3.752000000
H     1.660000000     3.174000000    -4.979000000
O     7.794000000    -0.422000000    -0.551000000
H     6.983000000    -0.919000000    -0.438000000
H     7.515000000     0.404000000    -0.945000000
O    -1.214000000     0.213000000    -4.717000000
H    -1.216000000     1.009000000    -5.249000000
H    -1.957000000     0.319000000    -4.123000000
O     4.362000000     1.185000000     1.634000000
H     3.753000000     1.587000000     2.254000000
H     4.180000000     0.247000000     1.692000000
O    -3.064000000     3.602000000    -1.306000000
H    -2.738000000     4.502000000    -1.321000000
H    -2.295000000     3.065000000    -1.498000000
O    -5.403000000    -3.495000000    -1.477000000
H    -4.705000000    -3.049000000    -0.997000000
H    -5.406000000    -4.385000000    -1.123000000
O     6.393000000     2.910000000     0.198000000
H     5.689000000     2.337000000     0.501000000
H     5.949000000     3.585000000    -0.315000000
O     1.182000000    -0.107000000     3.339000000
H     0.937000000    -0.524000000     2.513000000
H     0.771000000    -0.650000000     4.012000000
O    -0.519000000    -3.265000000     4.242000000
H    -1.327000000    -2.938000000     3.847000000
H    -0.530000000    -4.206000000     4.065000000
O    -1.263000000     3.906000000     4.561000000
H    -1.828000000     3.135000000     4.519000000
H    -0.388000000     3.553000000     4.721000000
O    -4.397000000     1.470000000     2.964000000
H    -4.883000000     1.832000000     3.705000000
H    -4.788000000     1.885000000     2.195000000
O    -6.629000000    -0.846000000    -3.209000000
H    -7.106000000    -0.811000000    -4.039000000
H    -7.310000000    -0.970000000    -2.548000000
O     1.432000000    -4.363000000    -2.092000000
H     0.619000000    -3.978000000    -2.418000000
H     1.233000000    -5.294000000    -1.994000000
O     5.501000000    -1.712000000    -0.242000000
H     4.673000000    -1.622000000     0.229000000
H     5.278000000    -2.216000000    -1.025000000
O    -4.083000000    -2.015000000    -3.598000000
H    -3.623000000    -2.298000000    -2.808000000
H    -4.976000000    -1.836000000    -3.305000000
O    -0.346000000     2.810000000    -2.064000000
H     0.155000000     3.115000000    -2.820000000
H    -0.319000000     1.855000000    -2.128000000
O    -1.155000000    -3.710000000    -3.029000000
H    -1.744000000    -4.430000000    -3.253000000
H    -1.537000000    -3.325000000    -2.240000000
O    -7.734000000     0.755000000     0.995000000
H    -8.155000000     0.204000000     0.336000000
H    -6.804000000     0.535000000     0.933000000
O     3.895000000    -2.918000000    -2.141000000
H     3.053000000    -3.358000000    -2.258000000
H     3.711000000    -1.997000000    -2.326000000
O    -0.607000000    -6.349000000    -0.188000000
H    -1.366000000    -5.812000000     0.040000000
H    -0.907000000    -6.889000000    -0.919000000
O     0.261000000     7.472000000     1.329000000
H     1.128000000     7.094000000     1.180000000
H    -0.320000000     6.715000000     1.405000000
O    -4.271000000     4.782000000     3.272000000
H    -4.015000000     4.606000000     2.367000000
H    -5.036000000     4.226000000     3.417000000
O     2.633000000     2.180000000     3.819000000
H     2.015000000     1.453000000     3.744000000
H     2.171000000     2.834000000     4.343000000
O     4.865000000     4.760000000    -0.939000000
H     4.008000000     4.525000000    -1.295000000
H     4.768000000     5.672000000    -0.664000000
O    -0.981000000    -5.743000000     2.854000000
H    -1.674000000    -5.370000000     2.309000000
H    -0.313000000    -6.028000000     2.230000000
O     7.007000000     1.295000000     3.167000000
H     6.315000000     1.543000000     2.553000000
H     6.566000000     0.744000000     3.814000000
O    -3.294000000    -2.248000000     4.008000000
H    -3.248000000    -1.809000000     4.857000000
H    -4.107000000    -1.930000000     3.617000000
O    -6.968000000    -3.392000000     1.657000000
H    -6.362000000    -2.653000000     1.711000000
H    -7.523000000    -3.304000000     2.432000000
O     0.622000000    -1.803000000    -4.064000000
H     0.098000000    -1.051000000    -4.341000000
H     0.020000000    -2.337000000    -3.546000000
O     2.648000000     6.449000000     1.125000000
H     3.596000000     6.429000000     1.254000000
H     2.484000000     5.789000000     0.452000000
O    -2.656000000    -4.656000000     0.433000000
H    -2.538000000    -3.882000000    -0.118000000
H    -3.437000000    -4.463000000     0.953000000
O     3.497000000    -1.568000000     1.765000000
H     2.890000000    -2.269000000     1.529000000
H     3.216000000    -1.291000000     2.637000000
O    -5.393000000     2.710000000     0.798000000
H    -4.967000000     3.474000000     0.410000000
H    -5.417000000     2.064000000     0.092000000
O    -5.005000000    -0.984000000     2.021000000
H    -4.438000000    -1.122000000     1.262000000
H    -4.676000000    -0.180000000     2.423000000
O    -5.433000000     0.656000000    -0.972000000
H    -4.840000000     0.012000000    -0.585000000
H    -5.654000000     0.294000000    -1.830000000
O    -4.069000000     5.154000000     0.601000000
H    -4.693000000     5.874000000     0.504000000
H    -3.929000000     4.837000000    -0.291000000
