158
-3024.60826
C     0.575000000     1.110000000    -0.796000000
H     1.109000000     1.893000000    -1.329000000
C     1.153000000     0.528000000     0.339000000
H     2.070000000     0.888000000     0.799000000
C     0.540000000    -0.530000000     0.951000000
H     0.931000000    -1.013000000     1.792000000
C    -0.684000000    -1.001000000     0.536000000
H    -1.188000000    -1.855000000     0.982000000
C    -1.179000000    -0.405000000    -0.611000000
H    -2.128000000    -0.840000000    -0.915000000
C    -0.605000000     0.724000000    -1.306000000
C    -1.416000000     1.404000000    -2.361000000
O    -0.825000000     2.031000000    -3.270000000
O    -2.591000000     1.184000000    -2.473000000
O     6.699000000    -2.385000000     3.423000000
H     6.254000000    -3.199000000     3.661000000
H     6.082000000    -1.936000000     2.846000000
O    -4.884000000     4.896000000    -3.410000000
H    -5.582000000     5.504000000    -3.654000000
H    -4.148000000     5.460000000    -3.172000000
O     0.100000000     1.865000000     4.272000000
H     0.527000000     2.369000000     4.964000000
H     0.822000000     1.455000000     3.795000000
O     0.185000000    -2.969000000     4.051000000
H    -0.115000000    -2.101000000     4.321000000
H     0.103000000    -2.966000000     3.098000000
O     4.814000000    -3.530000000     5.041000000
H     5.160000000    -2.929000000     5.701000000
H     3.865000000    -3.486000000     5.152000000
O    -2.900000000     0.419000000     3.629000000
H    -2.866000000     0.574000000     2.685000000
H    -1.984000000     0.328000000     3.891000000
O    -5.621000000    -0.938000000     0.358000000
H    -5.647000000    -0.826000000     1.308000000
H    -6.526000000    -1.137000000     0.116000000
O    -5.842000000    -3.827000000     1.659000000
H    -5.494000000    -3.380000000     2.431000000
H    -5.085000000    -4.275000000     1.281000000
O     1.884000000    -3.386000000    -0.839000000
H     2.826000000    -3.542000000    -0.906000000
H     1.611000000    -3.179000000    -1.732000000
O     4.566000000     1.639000000    -2.668000000
H     4.109000000     2.073000000    -3.388000000
H     5.350000000     1.266000000    -3.072000000
O     4.182000000     3.055000000    -0.441000000
H     4.124000000     2.211000000    -0.890000000
H     4.140000000     3.703000000    -1.144000000
O     3.719000000     3.383000000    -4.781000000
H     4.609000000     3.575000000    -5.075000000
H     3.341000000     2.859000000    -5.487000000
O    -3.857000000    -5.410000000     0.465000000
H    -4.249000000    -6.061000000     1.047000000
H    -3.954000000    -5.783000000    -0.411000000
O     0.807000000     0.000000000    -4.698000000
H     0.132000000     0.647000000    -4.491000000
H     0.965000000     0.112000000    -5.636000000
O    -2.988000000    -1.183000000    -3.615000000
H    -3.090000000    -1.836000000    -2.923000000
H    -2.901000000    -0.352000000    -3.149000000
O    -4.741000000    -2.838000000     3.952000000
H    -5.430000000    -2.753000000     4.611000000
H    -4.183000000    -2.072000000     4.088000000
O    -2.297000000     1.125000000    -5.519000000
H    -2.008000000     1.391000000    -4.646000000
H    -3.132000000     0.680000000    -5.370000000
O    -4.764000000     0.085000000    -5.303000000
H    -5.614000000     0.241000000    -4.892000000
H    -4.310000000    -0.502000000    -4.699000000
O     4.443000000     4.878000000    -2.634000000
H     3.885000000     4.470000000    -3.296000000
H     4.045000000     5.735000000    -2.480000000
O    -3.912000000     1.176000000    -0.130000000
H    -3.476000000     1.169000000    -0.982000000
H    -4.436000000     0.375000000    -0.122000000
O    -1.242000000     3.705000000     0.312000000
H    -2.159000000     3.971000000     0.247000000
H    -1.217000000     2.835000000    -0.085000000
O    -7.314000000     1.869000000    -4.755000000
H    -6.616000000     1.898000000    -4.100000000
H    -7.222000000     2.691000000    -5.238000000
O     5.203000000    -3.865000000     1.419000000
H     5.292000000    -3.709000000     0.478000000
H     5.162000000    -4.818000000     1.500000000
O    -1.999000000     4.269000000    -5.303000000
H    -2.624000000     3.622000000    -5.630000000
H    -2.169000000     4.313000000    -4.362000000
O    -1.138000000    -5.105000000    -2.569000000
H    -1.698000000    -4.329000000    -2.553000000
H    -1.202000000    -5.429000000    -3.467000000
O     2.150000000    -3.692000000     5.871000000
H     2.197000000    -3.001000000     6.532000000
H     1.354000000    -3.498000000     5.378000000
O     0.870000000     4.187000000    -3.296000000
H     1.552000000     3.861000000    -3.883000000
H     0.217000000     3.488000000    -3.277000000
O     0.299000000     3.334000000    -6.571000000
H    -0.373000000     3.284000000    -5.892000000
H     0.425000000     2.427000000    -6.851000000
O     2.241000000     4.537000000     0.968000000
H     1.864000000     4.864000000     0.151000000
H     2.582000000     3.671000000     0.744000000
O    -3.256000000    -3.293000000    -2.148000000
H    -3.018000000    -3.736000000    -1.333000000
H    -4.049000000    -3.742000000    -2.442000000
O     2.691000000    -2.474000000     2.722000000
H     3.439000000    -2.531000000     2.129000000
H     2.501000000    -3.383000000     2.957000000
O     4.298000000    -0.361000000    -0.771000000
H     4.454000000     0.255000000    -1.487000000
H     3.373000000    -0.246000000    -0.553000000
O     4.451000000    -2.851000000    -1.575000000
H     4.246000000    -2.641000000    -2.486000000
H     4.582000000    -2.000000000    -1.157000000
O     5.973000000     2.276000000     2.558000000
H     6.150000000     3.203000000     2.720000000
H     5.929000000     2.204000000     1.604000000
O    -1.661000000    -5.672000000     2.132000000
H    -2.412000000    -5.252000000     1.713000000
H    -0.940000000    -5.057000000     2.004000000
O     0.417000000    -3.746000000     1.395000000
H     1.346000000    -3.768000000     1.624000000
H     0.399000000    -3.395000000     0.505000000
O     2.188000000    -0.034000000     3.997000000
H     2.516000000    -0.865000000     3.651000000
H     1.594000000    -0.286000000     4.703000000
O     0.916000000    -6.038000000    -0.759000000
H     1.379000000    -5.219000000    -0.586000000
H     0.326000000    -5.832000000    -1.484000000
O     0.334000000    -6.726000000     3.953000000
H     0.302000000    -7.471000000     3.353000000
H     1.212000000    -6.364000000     3.839000000
O    -1.566000000    -0.412000000    -7.849000000
H    -2.000000000     0.136000000    -7.195000000
H    -0.665000000    -0.489000000    -7.538000000
O    -0.710000000    -2.502000000    -4.575000000
H    -0.135000000    -1.767000000    -4.788000000
H    -1.480000000    -2.096000000    -4.175000000
O     4.794000000     1.601000000     4.803000000
H     4.143000000     1.049000000     4.370000000
H     5.223000000     2.071000000     4.088000000
O     2.091000000    -2.916000000    -3.499000000
H     1.588000000    -3.460000000    -4.106000000
H     1.869000000    -2.018000000    -3.741000000
O    -5.125000000     2.155000000    -3.096000000
H    -4.418000000     1.607000000    -2.756000000
H    -4.721000000     3.012000000    -3.231000000
O    -0.675000000    -0.732000000     4.952000000
H    -0.480000000     0.141000000     5.294000000
H    -1.422000000    -1.030000000     5.470000000
O     0.705000000     5.444000000    -1.082000000
H     0.673000000     5.089000000    -1.970000000
H     0.063000000     4.927000000    -0.594000000
O    -0.605000000     4.284000000     3.222000000
H    -0.147000000     3.537000000     3.607000000
H    -0.847000000     3.989000000     2.344000000
O    -7.214000000     1.745000000    -0.663000000
H    -7.637000000     1.247000000    -1.363000000
H    -6.452000000     2.147000000    -1.081000000
