158
-3007.29874
C     1.199000000     0.721000000    -0.502000000
H     2.139000000     1.178000000    -0.800000000
C     1.100000000     0.023000000     0.746000000
H     1.938000000    -0.054000000     1.434000000
C    -0.082000000    -0.622000000     1.092000000
H    -0.110000000    -1.081000000     2.075000000
C    -1.143000000    -0.709000000     0.149000000
H    -2.112000000    -1.120000000     0.420000000
C    -0.977000000    -0.160000000    -1.150000000
H    -1.648000000    -0.241000000    -2.001000000
C     0.150000000     0.645000000    -1.394000000
C     0.224000000     1.326000000    -2.739000000
O     1.268000000     1.674000000    -3.214000000
O    -0.769000000     1.966000000    -3.101000000
O     3.246000000    -1.362000000    -5.145000000
H     2.654000000    -0.711000000    -5.521000000
H     2.896000000    -2.203000000    -5.439000000
O    -5.687000000     0.535000000    -1.940000000
H    -6.055000000     0.404000000    -2.814000000
H    -5.345000000    -0.324000000    -1.694000000
O     0.049000000    -3.782000000     4.347000000
H    -0.161000000    -4.241000000     3.534000000
H     0.079000000    -4.472000000     5.010000000
O    -1.626000000     5.609000000    -7.149000000
H    -1.504000000     5.318000000    -6.245000000
H    -1.283000000     6.503000000    -7.160000000
O     1.081000000     4.757000000     1.319000000
H     0.671000000     4.383000000     0.540000000
H     1.800000000     5.290000000     0.979000000
O     5.784000000    -1.050000000     3.710000000
H     5.516000000    -1.383000000     2.854000000
H     4.973000000    -0.730000000     4.106000000
O    -2.619000000     3.282000000     3.885000000
H    -2.102000000     3.884000000     4.420000000
H    -1.970000000     2.802000000     3.371000000
O    -3.800000000     2.545000000    -1.439000000
H    -3.271000000     2.622000000    -2.234000000
H    -4.454000000     1.879000000    -1.651000000
O    -4.894000000    -2.276000000     0.057000000
H    -4.956000000    -1.587000000     0.718000000
H    -5.192000000    -3.067000000     0.507000000
O    -3.889000000     0.109000000     2.105000000
H    -3.639000000     0.153000000     3.028000000
H    -3.110000000     0.403000000     1.632000000
O    -0.402000000    -1.286000000     5.092000000
H    -0.149000000    -2.064000000     4.594000000
H    -0.193000000    -1.506000000     6.000000000
O    -2.633000000     0.096000000     4.623000000
H    -1.714000000    -0.131000000     4.768000000
H    -3.123000000    -0.605000000     5.051000000
O     0.293000000     3.769000000    -1.311000000
H    -0.418000000     3.496000000    -0.731000000
H     0.096000000     3.346000000    -2.147000000
O     5.370000000    -0.719000000    -1.031000000
H     6.326000000    -0.703000000    -1.084000000
H     5.099000000    -1.283000000    -1.756000000
O    -4.764000000     2.022000000     4.794000000
H    -3.977000000     2.387000000     4.389000000
H    -4.433000000     1.389000000     5.432000000
O    -6.685000000    -0.176000000     2.641000000
H    -5.761000000    -0.123000000     2.397000000
H    -6.883000000    -1.113000000     2.629000000
O    -1.942000000    -3.865000000    -4.276000000
H    -2.009000000    -4.796000000    -4.067000000
H    -1.054000000    -3.623000000    -4.012000000
O     5.210000000     2.094000000    -1.890000000
H     5.144000000     1.250000000    -1.442000000
H     4.309000000     2.414000000    -1.931000000
O    -3.073000000     2.568000000    -4.117000000
H    -3.418000000     1.682000000    -4.222000000
H    -2.159000000     2.441000000    -3.863000000
O    -3.171000000    -0.229000000    -4.827000000
H    -2.884000000    -0.787000000    -5.549000000
H    -3.655000000    -0.817000000    -4.247000000
O    -0.106000000     4.004000000    -4.831000000
H    -0.289000000     3.293000000    -4.217000000
H     0.615000000     3.675000000    -5.368000000
O    -2.785000000    -5.736000000     2.365000000
H    -2.349000000    -4.955000000     2.023000000
H    -2.074000000    -6.272000000     2.716000000
O     1.032000000    -4.686000000    -0.814000000
H     1.160000000    -3.746000000    -0.688000000
H     1.918000000    -5.043000000    -0.868000000
O    -0.835000000     2.152000000     2.174000000
H    -0.637000000     1.387000000     1.634000000
H    -0.963000000     2.863000000     1.546000000
O     5.062000000     1.467000000     1.164000000
H     5.977000000     1.343000000     0.912000000
H     4.564000000     1.221000000     0.385000000
O    -1.981000000     3.669000000     0.286000000
H    -2.706000000     3.201000000    -0.128000000
H    -2.371000000     4.484000000     0.602000000
O     0.819000000    -2.818000000    -3.326000000
H     1.156000000    -1.983000000    -3.651000000
H     1.127000000    -2.864000000    -2.421000000
O    -4.446000000    -1.967000000     5.627000000
H    -4.218000000    -2.114000000     6.545000000
H    -5.216000000    -1.400000000     5.659000000
O     2.940000000    -5.999000000     1.925000000
H     3.027000000    -5.550000000     2.766000000
H     3.228000000    -6.894000000     2.100000000
O     0.021000000     2.215000000     5.252000000
H     0.030000000     2.308000000     4.300000000
H    -0.432000000     1.386000000     5.408000000
O    -0.428000000     6.882000000    -4.489000000
H     0.091000000     6.094000000    -4.651000000
H    -1.272000000     6.553000000    -4.181000000
O    -3.970000000    -2.277000000    -3.249000000
H    -3.258000000    -2.902000000    -3.386000000
H    -4.074000000    -2.236000000    -2.298000000
O     5.802000000     4.231000000     1.248000000
H     5.119000000     4.074000000     1.901000000
H     5.797000000     3.443000000     0.704000000
O     2.118000000     1.380000000    -5.840000000
H     2.081000000     1.646000000    -4.921000000
H     1.206000000     1.214000000    -6.078000000
O     2.123000000    -2.289000000    -0.393000000
H     1.545000000    -1.619000000    -0.027000000
H     2.852000000    -2.340000000     0.225000000
O    -0.956000000    -4.034000000     0.961000000
H    -0.168000000    -4.372000000     0.534000000
H    -0.902000000    -3.085000000     0.848000000
O     4.697000000    -2.071000000     1.343000000
H     4.891000000    -2.911000000     0.928000000
H     4.916000000    -1.419000000     0.677000000
O     3.996000000     0.784000000    -7.722000000
H     4.766000000     1.352000000    -7.691000000
H     3.482000000     1.036000000    -6.954000000
O    -4.975000000    -3.697000000     3.486000000
H    -4.446000000    -4.468000000     3.691000000
H    -4.672000000    -3.028000000     4.101000000
O     2.790000000    -5.115000000     4.357000000
H     2.748000000    -5.515000000     5.226000000
H     2.404000000    -4.246000000     4.475000000
O    -0.509000000     0.709000000    -6.050000000
H    -1.180000000     1.318000000    -6.358000000
H    -0.526000000     0.796000000    -5.097000000
O     2.872000000     3.391000000    -1.848000000
H     2.156000000     3.894000000    -1.458000000
H     2.436000000     2.711000000    -2.361000000
O     4.117000000     3.043000000     3.654000000
H     4.475000000     2.945000000     4.537000000
H     4.061000000     2.149000000     3.317000000
O     2.676000000     5.229000000    -5.757000000
H     3.138000000     4.743000000    -6.441000000
H     2.895000000     4.767000000    -4.947000000
O    -2.741000000     5.609000000    -3.723000000
H    -2.606000000     4.670000000    -3.848000000
H    -3.631000000     5.680000000    -3.377000000
O     2.910000000    -0.680000000     4.448000000
H     2.865000000    -1.563000000     4.083000000
H     2.155000000    -0.624000000     5.034000000
O     1.596000000     4.193000000     4.038000000
H     1.386000000     4.444000000     3.139000000
H     2.355000000     3.616000000     3.955000000
O    -4.100000000     3.430000000    -6.640000000
H    -4.996000000     3.144000000    -6.459000000
H    -3.678000000     3.453000000    -5.781000000
