158
-3055.26606
C     1.407000000     0.095000000    -0.511000000
H     2.435000000     0.356000000    -0.749000000
C     1.088000000     0.040000000     0.879000000
H     1.888000000     0.154000000     1.606000000
C    -0.259000000    -0.101000000     1.167000000
H    -0.522000000    -0.163000000     2.217000000
C    -1.249000000    -0.325000000     0.274000000
H    -2.230000000    -0.657000000     0.602000000
C    -0.925000000    -0.217000000    -1.110000000
H    -1.679000000    -0.303000000    -1.889000000
C     0.378000000     0.047000000    -1.497000000
C     0.686000000     0.221000000    -2.981000000
O     1.849000000     0.402000000    -3.380000000
O    -0.217000000     0.393000000    -3.836000000
O    -4.448000000     1.244000000    -0.107000000
H    -4.616000000     1.016000000    -1.021000000
H    -5.005000000     0.649000000     0.395000000
O     0.476000000    -3.435000000     2.907000000
H     0.367000000    -2.806000000     3.620000000
H     1.260000000    -3.139000000     2.445000000
O     4.994000000    -0.450000000     1.073000000
H     4.950000000     0.502000000     0.980000000
H     5.143000000    -0.771000000     0.183000000
O    -6.363000000    -1.314000000     0.834000000
H    -5.784000000    -1.920000000     0.371000000
H    -7.245000000    -1.580000000     0.575000000
O    -4.502000000    -2.739000000    -0.412000000
H    -4.022000000    -2.867000000    -1.230000000
H    -3.903000000    -2.238000000     0.142000000
O     0.765000000    -0.895000000    -7.354000000
H    -0.114000000    -0.593000000    -7.581000000
H     1.152000000    -0.164000000    -6.872000000
O    -0.579000000     1.506000000    -6.130000000
H    -0.205000000     1.213000000    -5.299000000
H    -1.508000000     1.640000000    -5.941000000
O    -3.691000000     3.179000000     6.919000000
H    -3.821000000     2.429000000     6.339000000
H    -4.541000000     3.618000000     6.938000000
O    -2.999000000     1.767000000     2.080000000
H    -3.252000000     0.867000000     2.286000000
H    -3.258000000     1.885000000     1.167000000
O     0.936000000    -1.482000000     4.537000000
H     1.737000000    -1.119000000     4.160000000
H     0.483000000    -0.726000000     4.910000000
O    -1.782000000     4.073000000     1.401000000
H    -2.493000000     3.481000000     1.644000000
H    -1.994000000     4.351000000     0.510000000
O     3.390000000    -4.402000000    -3.995000000
H     2.731000000    -4.738000000    -3.388000000
H     3.068000000    -3.535000000    -4.242000000
O    -5.362000000     3.286000000    -3.654000000
H    -4.942000000     2.580000000    -3.162000000
H    -6.279000000     3.253000000    -3.383000000
O    -1.212000000     2.678000000     4.338000000
H    -1.605000000     2.319000000     3.543000000
H    -0.541000000     3.284000000     4.022000000
O    -4.130000000    -0.797000000     2.902000000
H    -4.820000000    -1.257000000     3.381000000
H    -3.454000000    -1.460000000     2.761000000
O     5.946000000     1.526000000    -4.919000000
H     6.814000000     1.480000000    -4.519000000
H     5.551000000     2.314000000    -4.546000000
O    -2.426000000    -3.128000000    -2.798000000
H    -2.590000000    -2.350000000    -3.331000000
H    -1.572000000    -3.445000000    -3.092000000
O     4.468000000    -0.290000000    -3.437000000
H     3.530000000    -0.282000000    -3.629000000
H     4.840000000     0.356000000    -4.038000000
O     2.529000000     5.249000000    -0.619000000
H     2.817000000     6.007000000    -0.109000000
H     2.528000000     4.526000000     0.007000000
O    -0.111000000     0.675000000     5.872000000
H     0.348000000     1.046000000     6.626000000
H    -0.433000000     1.436000000     5.389000000
O    -2.754000000     1.153000000    -3.937000000
H    -1.871000000     0.786000000    -3.894000000
H    -2.649000000     1.972000000    -4.423000000
O     3.769000000     1.832000000     6.369000000
H     4.460000000     2.494000000     6.367000000
H     3.306000000     1.966000000     5.542000000
O     0.498000000    -3.309000000    -0.802000000
H     0.073000000    -2.557000000    -0.390000000
H     0.199000000    -3.284000000    -1.711000000
O    -2.418000000     4.938000000     5.110000000
H    -2.178000000     4.061000000     5.411000000
H    -2.750000000     5.377000000     5.893000000
O     2.731000000     3.119000000     1.446000000
H     3.666000000     3.321000000     1.481000000
H     2.695000000     2.200000000     1.181000000
O    -0.162000000    -4.408000000    -3.586000000
H     0.470000000    -3.805000000    -3.978000000
H     0.362000000    -4.959000000    -3.005000000
O     5.126000000     2.043000000    -0.304000000
H     4.654000000     1.969000000    -1.133000000
H     5.818000000     2.682000000    -0.479000000
O    -2.271000000    -3.063000000    -6.701000000
H    -2.494000000    -2.616000000    -5.885000000
H    -1.981000000    -2.362000000    -7.286000000
O    -2.255000000    -0.329000000     7.176000000
H    -1.446000000    -0.205000000     6.679000000
H    -2.857000000     0.325000000     6.822000000
O    -0.197000000    -5.945000000     3.404000000
H     0.341000000    -6.627000000     3.003000000
H     0.260000000    -5.129000000     3.200000000
O     2.726000000     3.225000000     4.361000000
H     1.917000000     3.293000000     3.854000000
H     3.422000000     3.239000000     3.704000000
O     3.875000000     3.769000000    -5.036000000
H     3.374000000     4.585000000    -5.024000000
H     4.679000000     3.989000000    -5.506000000
O    -4.341000000     0.991000000     5.401000000
H    -5.090000000     0.561000000     5.815000000
H    -4.392000000     0.729000000     4.482000000
O     1.763000000    -2.307000000    -4.817000000
H     1.037000000    -2.181000000    -5.428000000
H     1.876000000    -1.453000000    -4.401000000
O     0.348000000     3.853000000    -6.953000000
H     0.051000000     2.957000000    -6.792000000
H    -0.041000000     4.366000000    -6.245000000
O     1.613000000    -3.736000000     5.866000000
H     2.118000000    -3.472000000     6.635000000
H     1.638000000    -2.974000000     5.289000000
O    -3.183000000     3.190000000    -5.855000000
H    -3.914000000     3.564000000    -5.364000000
H    -3.564000000     2.934000000    -6.694000000
O    -3.411000000    -4.209000000     4.732000000
H    -3.162000000    -3.928000000     5.612000000
H    -4.342000000    -3.996000000     4.666000000
O     5.181000000     0.388000000    -7.576000000
H     4.913000000    -0.529000000    -7.524000000
H     4.925000000     0.760000000    -6.732000000
O     0.509000000     4.202000000     2.685000000
H     1.158000000     3.720000000     2.173000000
H    -0.298000000     4.132000000     2.175000000
O    -2.204000000    -2.742000000     2.381000000
H    -2.707000000    -3.235000000     3.029000000
H    -1.305000000    -3.054000000     2.488000000
O    -3.145000000    -1.431000000    -4.831000000
H    -2.872000000    -0.516000000    -4.767000000
H    -4.019000000    -1.393000000    -5.218000000
O     3.315000000     2.421000000    -2.483000000
H     3.324000000     2.941000000    -3.286000000
H     2.759000000     1.670000000    -2.690000000
O     2.669000000     0.837000000    -5.988000000
H     2.828000000     1.773000000    -5.864000000
H     2.232000000     0.560000000    -5.182000000
O    -5.078000000     0.355000000    -2.754000000
H    -4.193000000     0.480000000    -3.098000000
H    -5.360000000    -0.484000000    -3.119000000
O     3.399000000    -3.491000000     2.174000000
H     3.172000000    -2.630000000     2.528000000
H     4.215000000    -3.724000000     2.616000000
O     3.310000000    -0.843000000     3.228000000
H     3.846000000    -1.063000000     3.990000000
H     3.941000000    -0.569000000     2.563000000
O     5.234000000    -1.826000000    -1.401000000
H     4.790000000    -1.158000000    -1.925000000
H     5.588000000    -2.439000000    -2.045000000
