158
-3041.87751
C     0.605000000     0.976000000    -0.914000000
H     1.081000000     1.705000000    -1.566000000
C     1.096000000     0.687000000     0.354000000
H     1.888000000     1.265000000     0.823000000
C     0.332000000    -0.155000000     1.162000000
H     0.578000000    -0.248000000     2.206000000
C    -0.787000000    -0.854000000     0.711000000
H    -1.360000000    -1.552000000     1.316000000
C    -1.109000000    -0.668000000    -0.665000000
H    -2.026000000    -1.111000000    -1.046000000
C    -0.455000000     0.247000000    -1.463000000
C    -0.721000000     0.477000000    -2.937000000
O    -0.053000000     1.232000000    -3.621000000
O    -1.706000000     0.009000000    -3.428000000
O     0.715000000     5.676000000     1.067000000
H     0.063000000     5.319000000     0.463000000
H     0.974000000     6.509000000     0.674000000
O    -0.161000000     2.859000000     5.494000000
H    -0.135000000     3.607000000     6.090000000
H     0.057000000     3.227000000     4.637000000
O     2.441000000    -1.926000000     4.081000000
H     2.270000000    -2.750000000     3.625000000
H     1.579000000    -1.635000000     4.381000000
O    -3.434000000     3.275000000     4.000000000
H    -2.834000000     2.742000000     4.521000000
H    -3.321000000     2.957000000     3.104000000
O     2.271000000     1.777000000    -7.827000000
H     2.749000000     1.284000000    -7.161000000
H     2.178000000     2.654000000    -7.455000000
O    -2.821000000    -2.653000000    -6.363000000
H    -2.819000000    -1.710000000    -6.200000000
H    -3.729000000    -2.855000000    -6.588000000
O    -4.335000000     0.778000000     0.128000000
H    -4.069000000     0.436000000    -0.726000000
H    -5.277000000     0.928000000     0.043000000
O    -6.802000000    -2.358000000     0.466000000
H    -5.936000000    -2.306000000     0.870000000
H    -7.396000000    -2.001000000     1.127000000
O    -4.507000000    -1.830000000     1.544000000
H    -3.906000000    -1.663000000     2.270000000
H    -4.440000000    -1.050000000     0.993000000
O    -3.643000000    -1.285000000     4.107000000
H    -2.861000000    -1.781000000     4.347000000
H    -4.191000000    -1.307000000     4.891000000
O     4.073000000    -2.863000000    -1.137000000
H     3.361000000    -3.463000000    -0.915000000
H     3.640000000    -2.024000000    -1.293000000
O     5.409000000    -1.188000000     1.094000000
H     6.258000000    -0.956000000     0.718000000
H     5.021000000    -1.790000000     0.459000000
O     6.322000000     2.013000000     0.869000000
H     5.843000000     1.931000000     1.694000000
H     7.162000000     1.587000000     1.037000000
O     5.282000000     1.413000000    -4.563000000
H     5.334000000     1.092000000    -3.662000000
H     4.356000000     1.332000000    -4.792000000
O    -4.175000000    -4.526000000    -1.867000000
H    -4.266000000    -5.468000000    -2.009000000
H    -3.553000000    -4.242000000    -2.537000000
O     3.726000000    -0.450000000    -1.975000000
H     2.909000000     0.047000000    -2.017000000
H     4.356000000     0.158000000    -1.590000000
O    -4.057000000     0.684000000    -2.540000000
H    -4.530000000    -0.007000000    -3.004000000
H    -3.134000000     0.456000000    -2.647000000
O    -5.473000000    -0.737000000    -4.573000000
H    -6.251000000    -0.943000000    -5.091000000
H    -5.603000000    -1.205000000    -3.748000000
O    -1.147000000     2.970000000    -5.933000000
H    -0.966000000     2.219000000    -5.368000000
H    -2.103000000     3.017000000    -5.969000000
O    -3.672000000     1.166000000    -8.080000000
H    -4.403000000     1.767000000    -7.934000000
H    -3.546000000     0.734000000    -7.235000000
O    -2.526000000     2.124000000     1.693000000
H    -1.700000000     1.640000000     1.694000000
H    -3.050000000     1.704000000     1.011000000
O     4.196000000     0.758000000     2.345000000
H     4.504000000     0.027000000     1.810000000
H     4.444000000     0.523000000     3.239000000
O    -0.222000000    -3.688000000    -2.203000000
H    -0.020000000    -3.315000000    -1.345000000
H     0.569000000    -4.169000000    -2.447000000
O     4.057000000    -3.414000000     5.848000000
H     3.458000000    -3.788000000     6.494000000
H     3.488000000    -3.123000000     5.135000000
O    -2.568000000    -3.835000000    -3.927000000
H    -1.701000000    -3.621000000    -3.581000000
H    -2.605000000    -3.388000000    -4.773000000
O    -1.365000000     0.561000000     6.202000000
H    -0.806000000     1.328000000     6.073000000
H    -2.110000000     0.890000000     6.705000000
O    -1.285000000     4.378000000    -2.954000000
H    -1.453000000     5.038000000    -3.627000000
H    -2.044000000     3.796000000    -2.995000000
O     1.295000000     4.178000000    -6.572000000
H     1.645000000     4.346000000    -5.697000000
H     0.359000000     4.036000000    -6.433000000
O     3.743000000     3.786000000    -1.846000000
H     3.440000000     3.903000000    -0.945000000
H     3.221000000     4.405000000    -2.356000000
O    -5.450000000    -1.939000000    -2.068000000
H    -4.644000000    -2.404000000    -1.846000000
H    -6.028000000    -2.091000000    -1.320000000
O     5.530000000    -0.911000000     4.748000000
H     5.776000000    -1.808000000     4.520000000
H     4.724000000    -1.006000000     5.255000000
O     2.914000000     4.091000000     1.427000000
H     2.970000000     3.288000000     1.945000000
H     1.975000000     4.235000000     1.309000000
O     0.321000000     0.021000000    -5.938000000
H     0.252000000     0.316000000    -5.030000000
H    -0.134000000     0.694000000    -6.444000000
O     1.216000000    -2.903000000     0.213000000
H     1.036000000    -1.966000000     0.295000000
H     1.607000000    -3.146000000     1.052000000
O     1.299000000     4.569000000    -3.532000000
H     1.467000000     5.510000000    -3.482000000
H     0.394000000     4.471000000    -3.237000000
O    -2.734000000    -5.499000000     0.667000000
H    -1.951000000    -5.701000000     0.155000000
H    -3.340000000    -5.110000000     0.037000000
O     2.678000000    -4.319000000     2.512000000
H     2.466000000    -5.037000000     3.108000000
H     3.309000000    -4.695000000     1.898000000
O     0.608000000    -2.524000000     8.124000000
H     0.605000000    -2.144000000     7.245000000
H    -0.306000000    -2.480000000     8.406000000
O     3.459000000     1.099000000     6.355000000
H     3.277000000     0.407000000     6.991000000
H     2.848000000     1.800000000     6.583000000
O    -0.099000000    -2.739000000    -5.962000000
H     0.101000000    -1.805000000    -6.034000000
H    -1.032000000    -2.801000000    -6.167000000
O    -3.012000000    -0.021000000    -5.603000000
H    -3.856000000    -0.184000000    -5.182000000
H    -2.403000000     0.110000000    -4.876000000
O     3.605000000    -1.629000000    -4.535000000
H     3.153000000    -2.472000000    -4.495000000
H     3.537000000    -1.279000000    -3.647000000
O    -0.921000000     4.039000000    -0.325000000
H    -0.892000000     3.088000000    -0.218000000
H    -1.079000000     4.170000000    -1.260000000
O     2.444000000     2.741000000     4.022000000
H     2.021000000     2.305000000     4.762000000
H     2.832000000     2.028000000     3.514000000
O     2.516000000     1.682000000    -3.440000000
H     2.557000000     2.638000000    -3.424000000
H     1.600000000     1.485000000    -3.637000000
O    -3.544000000     3.151000000    -3.154000000
H    -3.694000000     2.232000000    -2.931000000
H    -4.125000000     3.637000000    -2.569000000
O    -0.092000000    -1.841000000     5.228000000
H    -0.317000000    -1.029000000     5.682000000
H    -0.725000000    -2.481000000     5.552000000
O     5.589000000     1.622000000    -1.658000000
H     4.841000000     2.219000000    -1.676000000
H     5.917000000     1.676000000    -0.760000000
