158
-3055.44298
C     0.622000000     0.921000000    -0.907000000
H     1.128000000     1.617000000    -1.572000000
C     1.227000000     0.277000000     0.126000000
H     2.240000000     0.507000000     0.445000000
C     0.485000000    -0.527000000     1.015000000
H     0.877000000    -1.018000000     1.841000000
C    -0.819000000    -0.772000000     0.712000000
H    -1.333000000    -1.447000000     1.392000000
C    -1.441000000    -0.283000000    -0.469000000
H    -2.489000000    -0.463000000    -0.692000000
C    -0.685000000     0.588000000    -1.238000000
C    -1.285000000     1.291000000    -2.402000000
O    -0.553000000     1.918000000    -3.124000000
O    -2.497000000     1.238000000    -2.695000000
O     2.967000000     2.575000000     2.470000000
H     2.730000000     3.076000000     1.689000000
H     2.593000000     3.073000000     3.197000000
O    -0.499000000    -1.620000000     4.201000000
H    -0.532000000    -0.674000000     4.062000000
H     0.428000000    -1.808000000     4.351000000
O    -3.315000000     2.822000000    -0.449000000
H    -3.242000000     2.381000000    -1.295000000
H    -3.592000000     3.712000000    -0.666000000
O    -7.023000000     0.012000000    -0.421000000
H    -6.094000000     0.236000000    -0.356000000
H    -7.149000000    -0.220000000    -1.341000000
O    -5.426000000    -2.070000000    -1.693000000
H    -4.801000000    -2.775000000    -1.862000000
H    -6.008000000    -2.423000000    -1.019000000
O    -2.387000000    -3.549000000    -1.852000000
H    -1.656000000    -2.987000000    -1.593000000
H    -2.508000000    -4.141000000    -1.110000000
O    -5.228000000     1.653000000     1.092000000
H    -4.792000000     1.152000000     1.781000000
H    -4.568000000     1.739000000     0.404000000
O    -4.128000000     0.579000000     3.479000000
H    -4.957000000     0.663000000     3.951000000
H    -3.938000000    -0.359000000     3.493000000
O     6.608000000     3.909000000     0.211000000
H     6.137000000     4.545000000     0.749000000
H     6.154000000     3.081000000     0.367000000
O     4.286000000    -4.118000000    -2.324000000
H     4.706000000    -3.844000000    -1.509000000
H     3.661000000    -3.419000000    -2.518000000
O     3.547000000     4.605000000    -1.879000000
H     4.088000000     4.048000000    -2.439000000
H     3.885000000     5.489000000    -2.022000000
O     1.239000000     0.106000000    -4.645000000
H     0.975000000     0.828000000    -4.074000000
H     1.321000000     0.504000000    -5.511000000
O    -2.527000000     6.192000000    -3.370000000
H    -1.604000000     6.194000000    -3.119000000
H    -2.642000000     5.375000000    -3.855000000
O    -2.403000000    -0.037000000    -5.132000000
H    -2.966000000    -0.777000000    -4.905000000
H    -2.447000000     0.540000000    -4.370000000
O    -1.443000000    -0.406000000    -7.972000000
H    -2.187000000    -0.914000000    -8.295000000
H    -1.731000000    -0.073000000    -7.122000000
O     1.925000000    -4.479000000    -0.590000000
H     1.731000000    -4.477000000    -1.527000000
H     2.784000000    -4.895000000    -0.523000000
O    -2.933000000    -4.473000000     0.850000000
H    -3.365000000    -4.583000000     1.697000000
H    -2.009000000    -4.651000000     1.027000000
O    -5.969000000    -0.315000000    -5.078000000
H    -6.872000000    -0.626000000    -5.139000000
H    -5.964000000     0.255000000    -4.309000000
O     1.542000000     5.247000000    -4.599000000
H     2.332000000     5.561000000    -5.038000000
H     1.014000000     6.034000000    -4.464000000
O    -4.956000000     0.423000000    -2.506000000
H    -4.017000000     0.585000000    -2.605000000
H    -5.019000000    -0.512000000    -2.311000000
O     5.642000000    -3.200000000    -0.132000000
H     6.353000000    -2.688000000    -0.518000000
H     5.265000000    -2.624000000     0.533000000
O     3.264000000     1.304000000     6.298000000
H     3.021000000     0.848000000     7.104000000
H     4.083000000     1.751000000     6.514000000
O    -1.841000000     2.971000000    -6.865000000
H    -2.436000000     2.275000000    -6.585000000
H    -1.111000000     2.924000000    -6.247000000
O     0.581000000    -4.379000000    -3.013000000
H    -0.049000000    -5.088000000    -2.880000000
H     0.042000000    -3.611000000    -3.201000000
O     2.341000000    -5.549000000     4.100000000
H     2.219000000    -4.607000000     3.981000000
H     1.730000000    -5.950000000     3.481000000
O     0.355000000     3.082000000    -5.357000000
H     0.893000000     3.839000000    -5.127000000
H     0.058000000     2.735000000    -4.516000000
O    -1.291000000     2.313000000     1.332000000
H    -2.019000000     2.449000000     0.725000000
H    -0.699000000     1.722000000     0.866000000
O    -3.575000000    -3.291000000    -4.192000000
H    -3.259000000    -3.367000000    -3.292000000
H    -3.270000000    -4.091000000    -4.621000000
O     3.489000000    -0.035000000     3.514000000
H     3.496000000     0.670000000     2.866000000
H     3.276000000     0.400000000     4.339000000
O     5.228000000    -0.864000000     1.267000000
H     4.657000000    -1.159000000     1.976000000
H     5.226000000     0.091000000     1.339000000
O     2.302000000    -2.174000000     4.591000000
H     2.492000000    -2.161000000     5.529000000
H     2.772000000    -1.417000000     4.240000000
O     1.696000000     3.143000000     5.024000000
H     1.911000000     3.914000000     5.549000000
H     2.241000000     2.446000000     5.388000000
O    -0.371000000    -3.965000000     0.436000000
H    -0.154000000    -3.187000000     0.949000000
H     0.449000000    -4.203000000     0.003000000
O    -0.344000000     1.309000000     3.864000000
H    -0.838000000     1.673000000     3.129000000
H     0.253000000     2.011000000     4.122000000
O    -1.195000000    -4.680000000     4.399000000
H    -1.195000000    -3.723000000     4.430000000
H    -0.608000000    -4.897000000     3.675000000
O    -4.817000000    -4.886000000    -1.309000000
H    -4.144000000    -4.746000000    -0.642000000
H    -5.644000000    -4.780000000    -0.839000000
O    -0.219000000    -2.180000000    -4.677000000
H     0.274000000    -1.361000000    -4.629000000
H    -0.828000000    -2.050000000    -5.405000000
O     5.324000000     1.929000000     1.608000000
H     4.440000000     2.233000000     1.814000000
H     5.844000000     2.169000000     2.376000000
O     3.084000000    -1.609000000    -2.373000000
H     2.786000000    -1.289000000    -1.521000000
H     2.449000000    -1.256000000    -2.996000000
O    -3.257000000     3.478000000    -4.218000000
H    -2.744000000     2.846000000    -3.713000000
H    -4.147000000     3.390000000    -3.877000000
O    -2.273000000    -1.449000000     6.984000000
H    -2.219000000    -0.493000000     7.002000000
H    -1.815000000    -1.700000000     6.182000000
O     5.671000000    -0.818000000     5.753000000
H     5.177000000    -0.524000000     4.987000000
H     6.585000000    -0.804000000     5.469000000
O    -2.078000000     1.281000000     6.364000000
H    -2.720000000     1.955000000     6.141000000
H    -1.500000000     1.240000000     5.602000000
O     0.373000000     4.298000000    -2.049000000
H     0.131000000     3.547000000    -2.591000000
H     1.040000000     4.757000000    -2.559000000
O    -1.037000000     6.165000000    -0.543000000
H    -0.485000000     5.578000000    -1.059000000
H    -1.403000000     5.608000000     0.145000000
O     0.297000000    -6.100000000     2.351000000
H     0.285000000    -7.003000000     2.034000000
H     0.033000000    -5.577000000     1.593000000
O    -6.146000000     2.856000000    -3.320000000
H    -6.891000000     2.802000000    -3.918000000
H    -5.914000000     1.944000000    -3.145000000
O     2.298000000     4.001000000     0.426000000
H     2.887000000     3.986000000    -0.328000000
H     1.422000000     3.918000000     0.048000000
