158
-3013.44787
C     1.254000000    -0.318000000    -0.643000000
H     2.247000000    -0.652000000    -0.933000000
C     0.967000000    -0.533000000     0.673000000
H     1.711000000    -0.980000000     1.327000000
C    -0.264000000    -0.272000000     1.173000000
H    -0.541000000    -0.476000000     2.161000000
C    -1.161000000     0.395000000     0.327000000
H    -2.094000000     0.815000000     0.695000000
C    -0.902000000     0.644000000    -1.048000000
H    -1.587000000     1.230000000    -1.655000000
C     0.312000000     0.209000000    -1.540000000
C     0.615000000     0.387000000    -2.970000000
O     1.626000000    -0.073000000    -3.387000000
O    -0.081000000     1.052000000    -3.725000000
O     0.857000000    -4.326000000    -1.361000000
H     0.105000000    -4.901000000    -1.501000000
H     0.479000000    -3.515000000    -1.022000000
O    -6.911000000     0.347000000     1.175000000
H    -7.457000000     1.127000000     1.274000000
H    -6.192000000     0.628000000     0.608000000
O     2.671000000    -3.091000000     3.838000000
H     2.334000000    -2.590000000     4.581000000
H     2.191000000    -3.919000000     3.869000000
O     4.537000000    -2.358000000     1.631000000
H     4.798000000    -1.525000000     2.023000000
H     4.177000000    -2.864000000     2.359000000
O    -0.882000000     5.892000000     3.086000000
H    -0.469000000     6.393000000     2.382000000
H    -0.228000000     5.237000000     3.328000000
O    -4.618000000     0.766000000     0.126000000
H    -4.080000000     1.521000000    -0.109000000
H    -4.717000000     0.278000000    -0.691000000
O    -3.424000000     0.315000000     5.696000000
H    -3.553000000     0.408000000     4.752000000
H    -4.291000000     0.465000000     6.072000000
O    -1.714000000     1.948000000     3.349000000
H    -1.562000000     2.446000000     2.545000000
H    -2.229000000     1.192000000     3.068000000
O     1.761000000    -1.059000000     5.680000000
H     1.510000000    -1.539000000     6.470000000
H     0.944000000    -0.959000000     5.192000000
O     1.015000000     3.207000000     3.687000000
H     0.532000000     2.500000000     4.115000000
H     1.088000000     2.928000000     2.774000000
O     2.116000000     3.470000000    -1.824000000
H     1.229000000     3.795000000    -1.673000000
H     2.569000000     4.197000000    -2.251000000
O    -2.201000000     3.323000000     5.658000000
H    -2.125000000     2.951000000     4.780000000
H    -2.269000000     2.562000000     6.236000000
O    -3.448000000    -0.120000000     2.982000000
H    -4.114000000     0.240000000     2.395000000
H    -3.558000000    -1.069000000     2.915000000
O     6.542000000     0.415000000    -5.191000000
H     6.001000000    -0.296000000    -4.847000000
H     6.225000000     1.197000000    -4.740000000
O    -3.415000000    -2.908000000    -2.679000000
H    -3.036000000    -3.668000000    -3.120000000
H    -3.694000000    -3.240000000    -1.825000000
O     5.439000000    -1.328000000    -2.410000000
H     4.789000000    -1.897000000    -2.823000000
H     4.933000000    -0.585000000    -2.081000000
O    -0.395000000     4.478000000    -1.257000000
H    -0.860000000     5.218000000    -0.865000000
H    -0.873000000     4.297000000    -2.066000000
O    -4.267000000    -3.215000000     0.113000000
H    -4.037000000    -4.144000000     0.130000000
H    -3.941000000    -2.872000000     0.945000000
O     1.143000000     0.821000000    -7.607000000
H     1.094000000     1.355000000    -6.814000000
H     0.300000000     0.368000000    -7.643000000
O     0.212000000     1.486000000     6.727000000
H     0.009000000     0.565000000     6.562000000
H    -0.637000000     1.889000000     6.912000000
O    -1.250000000     3.424000000    -3.624000000
H    -0.687000000     2.650000000    -3.608000000
H    -1.409000000     3.586000000    -4.554000000
O    -1.305000000    -3.955000000     4.672000000
H    -0.500000000    -4.472000000     4.642000000
H    -1.707000000    -4.184000000     5.510000000
O     2.587000000     0.758000000     7.926000000
H     2.988000000    -0.093000000     7.752000000
H     1.854000000     0.808000000     7.314000000
O    -1.104000000    -2.701000000    -0.536000000
H    -1.833000000    -2.565000000    -1.142000000
H    -1.191000000    -1.996000000     0.105000000
O     2.891000000     4.836000000     5.072000000
H     2.298000000     4.304000000     4.543000000
H     3.166000000     5.543000000     4.487000000
O     0.968000000     2.543000000     0.949000000
H     0.376000000     1.791000000     0.987000000
H     1.159000000     2.651000000     0.018000000
O     4.274000000    -2.743000000    -5.250000000
H     3.655000000    -2.018000000    -5.335000000
H     3.760000000    -3.454000000    -4.867000000
O     4.700000000     0.551000000     2.026000000
H     4.161000000     1.129000000     1.486000000
H     5.019000000    -0.117000000     1.419000000
O    -3.523000000     1.110000000    -6.023000000
H    -4.203000000     0.495000000    -6.300000000
H    -3.637000000     1.866000000    -6.599000000
O    -1.356000000    -3.416000000    -7.091000000
H    -1.199000000    -2.621000000    -6.582000000
H    -0.883000000    -3.274000000    -7.911000000
O    -1.679000000     3.865000000     1.178000000
H    -1.367000000     4.519000000     1.805000000
H    -0.942000000     3.736000000     0.581000000
O    -1.139000000    -0.925000000     6.193000000
H    -1.532000000    -1.739000000     6.509000000
H    -1.844000000    -0.489000000     5.714000000
O    -1.520000000    -6.834000000     2.245000000
H    -1.322000000    -5.898000000     2.280000000
H    -1.847000000    -7.043000000     3.120000000
O    -4.701000000     2.565000000    -1.929000000
H    -4.684000000     3.200000000    -2.645000000
H    -5.030000000     1.760000000    -2.329000000
O     5.608000000     2.659000000    -3.560000000
H     6.145000000     3.087000000    -2.894000000
H     4.878000000     2.279000000    -3.071000000
O     2.846000000    -2.342000000    -2.670000000
H     2.349000000    -1.576000000    -2.956000000
H     2.274000000    -2.775000000    -2.036000000
O     0.611000000     5.364000000    -5.243000000
H     1.180000000     5.656000000    -4.531000000
H     0.756000000     4.419000000    -5.293000000
O     4.400000000    -4.464000000    -0.462000000
H     3.797000000    -3.726000000    -0.558000000
H     4.448000000    -4.612000000     0.482000000
O     3.930000000     2.424000000    -5.731000000
H     4.489000000     2.698000000    -5.004000000
H     3.796000000     1.487000000    -5.591000000
O    -3.991000000     5.309000000    -0.482000000
H    -3.856000000     4.656000000    -1.169000000
H    -3.123000000     5.437000000    -0.099000000
O     1.086000000    -5.234000000     4.514000000
H     1.473000000    -5.670000000     5.274000000
H     0.973000000    -5.932000000     3.869000000
O     2.889000000    -0.473000000    -5.709000000
H     2.508000000    -0.561000000    -6.583000000
H     2.155000000    -0.207000000    -5.154000000
O    -3.410000000    -2.785000000     3.140000000
H    -2.698000000    -3.256000000     3.574000000
H    -4.203000000    -3.090000000     3.583000000
O    -1.051000000    -0.379000000    -5.924000000
H    -0.777000000     0.015000000    -5.096000000
H    -1.741000000     0.200000000    -6.248000000
O     3.595000000     1.236000000    -2.300000000
H     3.055000000     2.007000000    -2.128000000
H     3.007000000     0.625000000    -2.743000000
O     1.084000000     2.590000000    -5.454000000
H     1.985000000     2.540000000    -5.136000000
H     0.592000000     2.008000000    -4.875000000
O    -5.368000000     0.463000000    -3.292000000
H    -5.724000000    -0.411000000    -3.450000000
H    -4.725000000     0.589000000    -3.990000000
O     4.592000000    -0.030000000     4.609000000
H     3.733000000    -0.316000000     4.923000000
H     4.495000000     0.020000000     3.658000000
