158
-3045.06207
C    -0.241000000    -0.431000000     1.363000000
H    -0.468000000    -0.705000000     2.390000000
C    -0.010000000     0.877000000     1.024000000
H    -0.125000000     1.614000000     1.815000000
C     0.214000000     1.141000000    -0.285000000
H     0.146000000     2.130000000    -0.528000000
C     0.329000000     0.173000000    -1.258000000
H     0.389000000     0.416000000    -2.315000000
C     0.175000000    -1.149000000    -0.899000000
H     0.234000000    -1.954000000    -1.628000000
C    -0.227000000    -1.456000000     0.369000000
C    -0.683000000    -2.835000000     0.707000000
O    -0.319000000    -3.738000000    -0.006000000
O    -1.275000000    -3.111000000     1.694000000
O     4.988000000     5.260000000    -1.369000000
H     4.329000000     4.698000000    -0.963000000
H     5.623000000     4.651000000    -1.747000000
O    -3.752000000     2.834000000    -3.284000000
H    -4.634000000     3.205000000    -3.298000000
H    -3.870000000     1.923000000    -3.551000000
O     1.478000000     4.147000000    -2.109000000
H     2.348000000     3.769000000    -1.977000000
H     1.314000000     4.046000000    -3.047000000
O     0.791000000     1.662000000     4.450000000
H     1.716000000     1.457000000     4.587000000
H     0.321000000     0.994000000     4.950000000
O    -3.686000000    -4.387000000     0.146000000
H    -3.145000000    -3.599000000     0.191000000
H    -3.166000000    -5.060000000     0.584000000
O    -3.469000000    -2.133000000     3.151000000
H    -4.135000000    -1.940000000     2.490000000
H    -2.737000000    -2.499000000     2.655000000
O    -3.154000000    -2.630000000    -3.005000000
H    -2.727000000    -3.483000000    -2.923000000
H    -3.041000000    -2.222000000    -2.147000000
O     3.515000000    -0.145000000    -5.271000000
H     3.667000000    -0.573000000    -4.428000000
H     3.757000000    -0.804000000    -5.921000000
O    -1.085000000    -4.464000000    -2.369000000
H    -1.075000000    -4.129000000    -1.472000000
H    -0.256000000    -4.933000000    -2.458000000
O     4.404000000    -0.412000000     2.651000000
H     3.748000000    -1.091000000     2.493000000
H     4.662000000    -0.120000000     1.777000000
O    -4.049000000     0.063000000    -3.747000000
H    -4.260000000    -0.483000000    -4.505000000
H    -3.813000000    -0.561000000    -3.061000000
O     3.764000000    -2.059000000    -2.621000000
H     4.394000000    -2.708000000    -2.933000000
H     2.922000000    -2.515000000    -2.639000000
O    -0.420000000     6.117000000    -1.537000000
H     0.234000000     5.446000000    -1.735000000
H     0.088000000     6.921000000    -1.429000000
O    -3.413000000     1.478000000    -0.411000000
H    -2.458000000     1.540000000    -0.372000000
H    -3.672000000     2.162000000    -1.028000000
O    -2.197000000     3.763000000     0.180000000
H    -1.278000000     4.013000000     0.284000000
H    -2.548000000     4.398000000    -0.445000000
O     0.698000000    -0.648000000    -7.451000000
H    -0.052000000    -1.154000000    -7.762000000
H     0.524000000    -0.508000000    -6.521000000
O     0.226000000     6.141000000    -4.468000000
H    -0.642000000     6.117000000    -4.065000000
H     0.426000000     5.225000000    -4.661000000
O    -0.567000000    -4.935000000     3.614000000
H    -0.686000000    -4.326000000     2.885000000
H     0.381000000    -4.980000000     3.736000000
O    -2.889000000     2.315000000     2.536000000
H    -3.846000000     2.330000000     2.538000000
H    -2.646000000     2.603000000     1.656000000
O    -2.750000000    -6.553000000    -3.374000000
H    -3.177000000    -6.108000000    -4.106000000
H    -2.529000000    -5.852000000    -2.762000000
O    -1.597000000     1.568000000    -4.807000000
H    -2.192000000     1.400000000    -4.076000000
H    -2.100000000     2.124000000    -5.402000000
O     3.652000000     4.103000000     2.947000000
H     3.796000000     3.262000000     3.380000000
H     3.119000000     4.603000000     3.565000000
O    -2.952000000     6.721000000    -0.741000000
H    -2.135000000     6.456000000    -1.164000000
H    -3.470000000     7.112000000    -1.445000000
O    -0.648000000    -0.931000000    -4.920000000
H    -0.962000000    -0.027000000    -4.954000000
H    -1.419000000    -1.443000000    -4.677000000
O    -1.619000000    -6.068000000     1.047000000
H    -1.634000000    -6.272000000     1.982000000
H    -1.277000000    -5.176000000     1.001000000
O    -3.373000000     5.005000000     3.864000000
H    -3.513000000     4.821000000     4.793000000
H    -3.125000000     4.161000000     3.487000000
O     0.562000000     5.092000000     1.341000000
H     1.430000000     4.691000000     1.385000000
H     0.571000000     5.593000000     0.525000000
O    -2.302000000     0.178000000     4.837000000
H    -2.225000000     0.556000000     3.961000000
H    -2.472000000    -0.751000000     4.684000000
O     1.726000000     4.664000000     5.468000000
H     1.173000000     4.238000000     4.812000000
H     1.690000000     4.082000000     6.226000000
O    -0.497000000     4.191000000     3.864000000
H    -0.234000000     3.272000000     3.919000000
H    -0.355000000     4.427000000     2.947000000
O     0.975000000    -6.941000000    -1.278000000
H     1.502000000    -6.350000000    -0.739000000
H     0.235000000    -7.178000000    -0.719000000
O    -2.546000000     5.376000000    -4.297000000
H    -2.627000000     4.527000000    -3.863000000
H    -2.729000000     5.192000000    -5.219000000
O     1.047000000    -2.820000000    -3.803000000
H     0.692000000    -3.445000000    -4.435000000
H     0.712000000    -1.971000000    -4.090000000
O     0.682000000    -1.277000000     5.126000000
H     0.191000000    -1.762000000     4.463000000
H     0.669000000    -1.845000000     5.896000000
O     1.977000000    -4.017000000     3.944000000
H     2.184000000    -3.084000000     3.892000000
H     2.757000000    -4.414000000     4.332000000
O    -1.425000000    -7.763000000     3.497000000
H    -0.759000000    -8.243000000     3.005000000
H    -1.000000000    -6.939000000     3.737000000
O     3.812000000     2.679000000    -2.042000000
H     3.977000000     2.786000000    -2.979000000
H     3.573000000     1.758000000    -1.944000000
O     1.855000000    -5.152000000     0.568000000
H     2.654000000    -4.657000000     0.753000000
H     1.241000000    -4.499000000     0.233000000
O    -0.690000000    -8.514000000     0.375000000
H    -0.955000000    -7.628000000     0.620000000
H    -1.385000000    -8.819000000    -0.209000000
O    -3.097000000    -1.404000000    -0.612000000
H    -2.987000000    -0.500000000    -0.317000000
H    -3.969000000    -1.652000000    -0.305000000
O     3.524000000     2.514000000    -4.736000000
H     3.534000000     1.652000000    -5.151000000
H     2.607000000     2.786000000    -4.770000000
O     0.823000000     3.061000000    -4.908000000
H     0.250000000     2.342000000    -4.640000000
H     0.741000000     3.089000000    -5.861000000
O    -2.150000000    -3.750000000     5.528000000
H    -1.692000000    -4.080000000     4.755000000
H    -2.792000000    -4.430000000     5.735000000
O    -4.890000000    -4.457000000     3.929000000
H    -4.661000000    -3.666000000     3.442000000
H    -5.172000000    -4.138000000     4.786000000
O     2.628000000    -2.033000000     1.428000000
H     1.840000000    -2.561000000     1.303000000
H     3.344000000    -2.600000000     1.143000000
O     3.433000000     0.042000000    -1.069000000
H     2.630000000    -0.062000000    -0.558000000
H     3.488000000    -0.757000000    -1.594000000
O     1.322000000    -7.055000000     3.092000000
H     1.494000000    -6.230000000     2.638000000
H     2.039000000    -7.137000000     3.720000000
O     3.273000000     4.052000000     0.310000000
H     3.434000000     3.842000000     1.229000000
H     3.384000000     3.219000000    -0.149000000
