158
-3021.08200
C     1.242000000    -0.546000000    -0.757000000
H     2.009000000    -1.126000000    -1.262000000
C     0.605000000    -1.096000000     0.376000000
H     0.958000000    -2.036000000     0.793000000
C    -0.476000000    -0.515000000     0.997000000
H    -0.893000000    -0.949000000     1.950000000
C    -0.924000000     0.696000000     0.457000000
H    -1.775000000     1.200000000     0.908000000
C    -0.320000000     1.280000000    -0.604000000
H    -0.734000000     2.230000000    -0.933000000
C     0.696000000     0.611000000    -1.277000000
C     1.210000000     1.272000000    -2.522000000
O     2.036000000     0.708000000    -3.210000000
O     0.547000000     2.167000000    -2.991000000
O    -5.346000000     4.356000000    -3.136000000
H    -6.018000000     4.308000000    -2.457000000
H    -4.623000000     3.828000000    -2.796000000
O    -1.903000000    -5.368000000    -1.530000000
H    -1.886000000    -5.981000000    -0.795000000
H    -1.952000000    -4.505000000    -1.120000000
O     0.192000000     7.223000000     0.169000000
H    -0.747000000     7.118000000     0.322000000
H     0.580000000     6.406000000     0.481000000
O     6.050000000    -0.649000000    -6.368000000
H     6.082000000     0.219000000    -6.772000000
H     5.120000000    -0.877000000    -6.363000000
O    -0.856000000     1.807000000     3.463000000
H    -0.234000000     1.666000000     2.749000000
H    -0.606000000     2.652000000     3.836000000
O    -0.847000000    -1.942000000    -5.294000000
H    -1.186000000    -1.802000000    -6.178000000
H    -1.125000000    -2.830000000    -5.069000000
O    -3.503000000     0.840000000     7.680000000
H    -4.434000000     0.729000000     7.488000000
H    -3.060000000     0.270000000     7.051000000
O    -3.432000000    -2.035000000     2.638000000
H    -3.513000000    -2.288000000     3.558000000
H    -3.395000000    -1.079000000     2.655000000
O     1.068000000     3.200000000    -7.225000000
H     1.130000000     2.374000000    -6.745000000
H     0.458000000     3.016000000    -7.939000000
O     0.907000000    -5.648000000     1.446000000
H     0.277000000    -4.967000000     1.682000000
H     0.678000000    -6.390000000     2.006000000
O     0.697000000    -4.389000000    -3.443000000
H     0.079000000    -4.627000000    -4.133000000
H     1.401000000    -5.033000000    -3.520000000
O     1.899000000     0.935000000    -5.825000000
H     1.893000000     1.096000000    -4.881000000
H     2.680000000     0.401000000    -5.971000000
O     4.212000000     0.035000000    -2.007000000
H     3.417000000     0.237000000    -2.501000000
H     4.591000000    -0.717000000    -2.461000000
O     2.789000000     5.025000000    -1.167000000
H     3.019000000     5.695000000    -1.811000000
H     3.368000000     4.290000000    -1.368000000
O     5.595000000     2.530000000    -1.878000000
H     5.123000000     1.705000000    -1.988000000
H     6.097000000     2.412000000    -1.071000000
O     4.823000000    -2.464000000    -3.146000000
H     5.439000000    -2.849000000    -3.769000000
H     3.968000000    -2.798000000    -3.416000000
O     3.248000000     3.422000000    -4.734000000
H     3.515000000     2.816000000    -5.425000000
H     2.454000000     3.034000000    -4.368000000
O     2.073000000    -4.197000000    -0.838000000
H     1.612000000    -4.565000000    -0.084000000
H     1.381000000    -4.003000000    -1.470000000
O    -2.333000000     5.492000000    -0.350000000
H    -1.477000000     5.090000000    -0.497000000
H    -2.950000000     4.761000000    -0.388000000
O     2.164000000    -1.897000000    -4.047000000
H     1.432000000    -2.481000000    -3.847000000
H     1.848000000    -1.026000000    -3.805000000
O    -3.867000000     5.319000000     2.079000000
H    -3.366000000     4.511000000     1.968000000
H    -3.219000000     6.018000000     1.984000000
O     1.869000000     4.891000000     1.274000000
H     1.633000000     3.966000000     1.209000000
H     2.298000000     5.087000000     0.442000000
O     3.172000000    -1.653000000    -6.605000000
H     3.533000000    -2.515000000    -6.812000000
H     2.661000000    -1.793000000    -5.808000000
O     3.347000000    -4.574000000     3.008000000
H     2.909000000    -4.662000000     2.161000000
H     3.075000000    -3.714000000     3.329000000
O     0.823000000    -0.079000000     5.543000000
H     1.239000000     0.183000000     6.365000000
H     0.438000000     0.728000000     5.202000000
O    -3.987000000     3.505000000    -0.653000000
H    -4.776000000     3.649000000    -0.131000000
H    -3.915000000     2.553000000    -0.721000000
O     2.380000000    -2.087000000     3.543000000
H     1.728000000    -1.707000000     4.132000000
H     2.611000000    -1.373000000     2.949000000
O     0.376000000    -5.061000000     4.645000000
H    -0.275000000    -4.512000000     4.208000000
H     0.803000000    -5.538000000     3.934000000
O    -1.088000000    -3.969000000     2.217000000
H    -1.727000000    -3.262000000     2.312000000
H    -1.500000000    -4.583000000     1.609000000
O     1.946000000     2.031000000     1.413000000
H     2.586000000     1.721000000     2.053000000
H     2.274000000     1.713000000     0.572000000
O     5.225000000    -1.690000000     1.867000000
H     4.976000000    -0.772000000     1.764000000
H     5.113000000    -2.068000000     0.994000000
O     0.781000000     6.548000000    -3.218000000
H     0.985000000     7.417000000    -2.872000000
H     1.409000000     6.420000000    -3.929000000
O    -5.032000000    -2.804000000     0.301000000
H    -5.640000000    -2.070000000     0.215000000
H    -4.768000000    -2.790000000     1.221000000
O    -4.578000000     0.598000000    -3.749000000
H    -3.842000000     1.209000000    -3.788000000
H    -4.559000000     0.146000000    -4.592000000
O    -3.388000000    -2.034000000     5.799000000
H    -3.790000000    -2.899000000     5.877000000
H    -2.489000000    -2.212000000     5.522000000
O    -5.558000000    -0.431000000     5.130000000
H    -5.041000000     0.244000000     4.691000000
H    -4.909000000    -1.044000000     5.474000000
O    -0.917000000    -2.329000000     5.186000000
H    -0.518000000    -1.469000000     5.053000000
H    -0.199000000    -2.880000000     5.500000000
O    -2.097000000     6.056000000    -3.192000000
H    -2.163000000     6.019000000    -2.238000000
H    -1.183000000     5.842000000    -3.377000000
O     4.625000000    -3.223000000    -0.415000000
H     3.720000000    -3.535000000    -0.421000000
H     4.773000000    -2.901000000    -1.304000000
O    -2.264000000    -2.987000000    -0.493000000
H    -1.854000000    -2.125000000    -0.562000000
H    -3.157000000    -2.804000000    -0.200000000
O     3.262000000    -5.335000000    -3.212000000
H     3.874000000    -5.953000000    -2.812000000
H     3.048000000    -4.721000000    -2.509000000
O    -0.284000000     4.422000000    -1.909000000
H     0.357000000     4.940000000    -2.396000000
H    -0.101000000     3.517000000    -2.162000000
O    -2.518000000     2.800000000    -5.486000000
H    -1.885000000     2.542000000    -4.816000000
H    -2.841000000     1.973000000    -5.842000000
O    -3.178000000     0.709000000     3.483000000
H    -2.302000000     1.083000000     3.386000000
H    -3.662000000     1.362000000     3.988000000
O    -1.569000000     0.968000000    -3.887000000
H    -0.737000000     1.426000000    -3.775000000
H    -1.348000000     0.042000000    -3.792000000
O     6.475000000     1.478000000    -4.400000000
H     6.069000000     1.954000000    -3.675000000
H     5.753000000     1.300000000    -5.003000000
O     0.042000000     0.402000000    -8.378000000
H    -0.418000000    -0.388000000    -8.663000000
H     0.530000000     0.127000000    -7.602000000
O    -4.021000000     0.738000000    -0.612000000
H    -4.449000000     0.056000000    -0.092000000
H    -4.160000000     0.469000000    -1.520000000
