158
-3019.00847
C     1.288000000     0.424000000    -0.563000000
H     2.262000000     0.786000000    -0.884000000
C     1.020000000     0.250000000     0.776000000
H     1.880000000     0.286000000     1.440000000
C    -0.247000000    -0.122000000     1.182000000
H    -0.393000000    -0.275000000     2.226000000
C    -1.241000000    -0.342000000     0.270000000
H    -2.225000000    -0.684000000     0.578000000
C    -0.952000000    -0.086000000    -1.072000000
H    -1.758000000    -0.288000000    -1.772000000
C     0.303000000     0.354000000    -1.504000000
C     0.595000000     0.502000000    -2.951000000
O     1.464000000     1.214000000    -3.390000000
O    -0.082000000    -0.195000000    -3.724000000
O    -4.354000000    -3.731000000    -0.553000000
H    -4.005000000    -3.862000000    -1.434000000
H    -3.759000000    -4.219000000     0.016000000
O    -1.412000000     3.756000000     4.367000000
H    -0.937000000     3.041000000     4.793000000
H    -2.171000000     3.333000000     3.965000000
O     0.990000000     3.061000000     2.039000000
H     0.721000000     3.604000000     2.780000000
H     1.795000000     2.635000000     2.333000000
O    -1.228000000    -4.934000000    -4.816000000
H    -0.850000000    -4.057000000    -4.753000000
H    -0.881000000    -5.287000000    -5.635000000
O     1.423000000    -4.683000000    -3.011000000
H     1.660000000    -4.148000000    -2.254000000
H     1.418000000    -4.070000000    -3.746000000
O    -0.115000000     1.492000000     5.594000000
H     0.135000000     0.585000000     5.417000000
H     0.691000000     1.906000000     5.905000000
O    -2.581000000    -1.279000000    -3.920000000
H    -1.690000000    -0.981000000    -4.101000000
H    -3.083000000    -0.474000000    -3.795000000
O    -6.405000000    -1.661000000    -1.797000000
H    -5.708000000    -1.945000000    -1.206000000
H    -6.483000000    -0.720000000    -1.642000000
O    -5.150000000     2.598000000     4.615000000
H    -5.939000000     2.799000000     4.112000000
H    -4.534000000     2.254000000     3.968000000
O    -1.201000000     4.617000000    -5.022000000
H    -2.078000000     4.555000000    -5.399000000
H    -0.620000000     4.703000000    -5.778000000
O    -2.314000000    -3.811000000     3.928000000
H    -1.865000000    -4.656000000     3.972000000
H    -2.910000000    -3.818000000     4.677000000
O     3.154000000     2.930000000    -6.432000000
H     3.152000000     2.140000000    -5.891000000
H     4.082000000     3.115000000    -6.582000000
O     5.268000000    -1.214000000     2.401000000
H     4.723000000    -0.839000000     1.710000000
H     5.897000000    -0.523000000     2.612000000
O    -3.342000000     1.442000000    -3.612000000
H    -4.002000000     2.130000000    -3.696000000
H    -2.807000000     1.713000000    -2.866000000
O    -1.078000000     2.592000000     0.420000000
H    -0.299000000     2.766000000     0.948000000
H    -1.049000000     1.649000000     0.255000000
O     2.567000000    -2.862000000    -1.386000000
H     3.276000000    -2.368000000    -1.798000000
H     2.149000000    -2.235000000    -0.796000000
O     3.416000000     3.074000000    -3.313000000
H     3.293000000     3.877000000    -3.819000000
H     2.639000000     2.549000000    -3.506000000
O     6.969000000     3.348000000    -2.215000000
H     6.360000000     2.842000000    -1.676000000
H     7.157000000     2.778000000    -2.961000000
O    -1.056000000    -4.591000000    -0.296000000
H    -0.424000000    -5.177000000    -0.713000000
H    -0.524000000    -3.877000000     0.056000000
O     4.214000000    -0.974000000    -2.911000000
H     4.962000000    -1.298000000    -3.412000000
H     3.735000000    -0.420000000    -3.527000000
O     0.028000000     3.490000000    -2.797000000
H    -0.443000000     3.793000000    -3.573000000
H     0.684000000     2.882000000    -3.137000000
O     1.669000000    -1.761000000    -7.096000000
H     0.944000000    -1.342000000    -7.561000000
H     1.856000000    -2.550000000    -7.605000000
O     0.800000000    -2.881000000     0.959000000
H     1.257000000    -2.811000000     1.798000000
H     0.492000000    -1.992000000     0.780000000
O    -3.252000000     2.160000000     2.155000000
H    -2.603000000     2.251000000     1.457000000
H    -4.036000000     1.835000000     1.712000000
O     2.872000000     2.121000000     3.552000000
H     3.075000000     1.375000000     4.118000000
H     3.513000000     2.788000000     3.796000000
O     3.645000000     5.831000000    -1.319000000
H     3.090000000     5.096000000    -1.062000000
H     3.936000000     5.613000000    -2.205000000
O     0.624000000    -2.626000000    -4.574000000
H     0.522000000    -2.561000000    -5.523000000
H     0.450000000    -1.741000000    -4.253000000
O    -5.393000000     1.853000000     0.499000000
H    -6.173000000     2.032000000     1.024000000
H    -5.729000000     1.693000000    -0.383000000
O     3.095000000     1.049000000     6.265000000
H     3.021000000     0.379000000     6.945000000
H     3.923000000     1.491000000     6.454000000
O     2.061000000    -2.296000000     3.246000000
H     2.809000000    -1.699000000     3.227000000
H     1.642000000    -2.129000000     4.091000000
O    -4.542000000    -1.135000000     5.296000000
H    -3.606000000    -1.070000000     5.486000000
H    -4.666000000    -2.040000000     5.012000000
O     2.026000000     3.652000000    -0.797000000
H     1.751000000     3.437000000     0.094000000
H     1.494000000     3.085000000    -1.355000000
O     5.274000000    -3.851000000     2.445000000
H     5.088000000    -2.935000000     2.238000000
H     4.633000000    -4.347000000     1.936000000
O    -3.276000000     0.478000000    -6.881000000
H    -4.004000000     0.308000000    -7.479000000
H    -3.690000000     0.589000000    -6.025000000
O    -3.722000000    -3.794000000    -3.717000000
H    -3.251000000    -2.977000000    -3.876000000
H    -3.349000000    -4.413000000    -4.345000000
O    -2.273000000    -0.316000000     6.438000000
H    -1.695000000    -0.697000000     7.099000000
H    -1.699000000     0.237000000     5.909000000
O    -1.060000000    -6.067000000     3.615000000
H    -0.599000000    -6.499000000     4.334000000
H    -0.377000000    -5.881000000     2.970000000
O    -3.214000000    -5.127000000     1.467000000
H    -2.473000000    -4.868000000     0.918000000
H    -3.135000000    -4.580000000     2.249000000
O     1.202000000    -1.885000000     5.836000000
H     1.907000000    -1.857000000     6.483000000
H     0.415000000    -2.073000000     6.348000000
O     0.913000000     4.657000000    -7.416000000
H     1.693000000     4.589000000    -6.866000000
H     1.168000000     5.253000000    -8.121000000
O    -2.393000000     3.659000000    -1.609000000
H    -2.077000000     3.138000000    -0.870000000
H    -1.611000000     4.097000000    -1.945000000
O     1.204000000     1.493000000    -8.167000000
H     0.762000000     1.086000000    -7.422000000
H     1.848000000     2.081000000    -7.772000000
O     4.089000000     1.280000000     1.033000000
H     3.627000000     2.038000000     1.392000000
H     4.588000000     1.632000000     0.296000000
O    -0.440000000     0.372000000    -6.147000000
H     0.036000000     0.250000000    -5.326000000
H    -1.329000000     0.602000000    -5.877000000
O     2.728000000     0.416000000    -5.534000000
H     2.267000000    -0.333000000    -5.912000000
H     2.235000000     0.625000000    -4.740000000
O     0.079000000     5.983000000    -1.178000000
H     0.472000000     5.111000000    -1.213000000
H     0.809000000     6.582000000    -1.329000000
O     2.215000000    -5.064000000     3.434000000
H     2.139000000    -4.111000000     3.381000000
H     2.655000000    -5.313000000     2.621000000
O     4.974000000     1.440000000    -1.606000000
H     4.643000000     0.591000000    -1.899000000
H     4.534000000     2.077000000    -2.169000000
