158
-3048.82638
C     1.262000000    -0.066000000    -0.725000000
H     2.259000000    -0.133000000    -1.154000000
C     1.126000000    -0.098000000     0.652000000
H     1.988000000    -0.278000000     1.289000000
C    -0.147000000    -0.099000000     1.197000000
H    -0.165000000    -0.293000000     2.301000000
C    -1.232000000     0.181000000     0.455000000
H    -2.211000000     0.079000000     0.915000000
C    -1.142000000     0.342000000    -0.956000000
H    -1.936000000     0.680000000    -1.617000000
C     0.086000000     0.142000000    -1.516000000
C     0.295000000     0.218000000    -3.016000000
O     1.355000000     0.683000000    -3.423000000
O    -0.584000000     0.093000000    -3.799000000
O    -4.775000000    -2.634000000     0.597000000
H    -5.162000000    -2.750000000    -0.271000000
H    -3.880000000    -2.961000000     0.505000000
O    -0.779000000     0.297000000     5.358000000
H    -1.035000000     0.826000000     4.603000000
H    -0.825000000     0.899000000     6.101000000
O    -1.606000000     1.909000000     3.403000000
H    -1.225000000     2.652000000     2.934000000
H    -2.463000000     1.783000000     2.996000000
O    -1.805000000     0.274000000    -6.811000000
H    -1.322000000    -0.493000000    -7.119000000
H    -2.718000000     0.086000000    -7.028000000
O    -0.528000000    -4.918000000    -3.565000000
H    -0.337000000    -4.181000000    -4.145000000
H     0.332000000    -5.241000000    -3.298000000
O    -2.915000000     1.414000000    -3.745000000
H    -2.120000000     1.021000000    -4.105000000
H    -2.598000000     2.103000000    -3.161000000
O    -2.481000000    -1.838000000     4.695000000
H    -1.792000000    -1.201000000     4.884000000
H    -3.073000000    -1.379000000     4.098000000
O     1.164000000     5.675000000    -3.390000000
H     0.896000000     5.789000000    -4.301000000
H     1.741000000     4.911000000    -3.404000000
O     4.221000000     1.334000000    -5.826000000
H     3.649000000     1.953000000    -6.279000000
H     3.962000000     0.477000000    -6.164000000
O    -3.815000000    -4.103000000     5.068000000
H    -4.413000000    -4.326000000     4.355000000
H    -3.460000000    -3.248000000     4.824000000
O     5.542000000     3.329000000    -4.153000000
H     5.148000000     3.183000000    -3.294000000
H     5.153000000     2.658000000    -4.713000000
O     2.397000000     3.790000000    -5.644000000
H     2.599000000     3.706000000    -4.712000000
H     1.638000000     3.222000000    -5.776000000
O     4.493000000     2.431000000     2.982000000
H     5.291000000     2.109000000     3.401000000
H     4.421000000     1.918000000     2.177000000
O     2.208000000    -3.918000000     0.802000000
H     2.443000000    -4.846000000     0.812000000
H     1.272000000    -3.910000000     0.604000000
O    -1.980000000     3.572000000    -2.081000000
H    -2.667000000     4.217000000    -2.246000000
H    -1.187000000     4.093000000    -1.957000000
O    -2.235000000     3.599000000     1.052000000
H    -2.177000000     3.156000000     0.205000000
H    -1.700000000     4.386000000     0.948000000
O     4.698000000     0.400000000     1.278000000
H     4.894000000    -0.017000000     2.117000000
H     4.295000000    -0.293000000     0.755000000
O     0.013000000    -2.882000000    -0.765000000
H     0.724000000    -2.734000000    -1.389000000
H     0.166000000    -2.241000000    -0.071000000
O     4.003000000    -0.274000000    -3.350000000
H     3.195000000     0.224000000    -3.221000000
H     4.291000000    -0.037000000    -4.232000000
O     2.346000000     3.272000000    -2.768000000
H     2.361000000     3.353000000    -1.815000000
H     2.044000000     2.377000000    -2.927000000
O    -0.613000000    -1.867000000    -7.965000000
H    -0.602000000    -2.819000000    -7.859000000
H     0.053000000    -1.692000000    -8.630000000
O    -3.992000000    -0.807000000     2.770000000
H    -4.354000000    -0.091000000     2.247000000
H    -4.275000000    -1.601000000     2.316000000
O    -5.917000000     1.544000000    -3.510000000
H    -5.001000000     1.450000000    -3.773000000
H    -6.328000000     2.013000000    -4.236000000
O     1.373000000     3.404000000     6.801000000
H     1.833000000     3.089000000     6.023000000
H     0.543000000     2.928000000     6.797000000
O    -4.712000000    -2.968000000    -2.285000000
H    -4.818000000    -3.607000000    -2.990000000
H    -3.942000000    -2.458000000    -2.537000000
O     3.235000000     2.518000000    -0.124000000
H     3.893000000     1.822000000    -0.120000000
H     3.739000000     3.324000000    -0.234000000
O    -0.462000000    -2.533000000    -5.230000000
H    -0.314000000    -2.377000000    -6.163000000
H    -0.548000000    -1.658000000    -4.852000000
O     5.556000000    -2.456000000    -3.077000000
H     4.876000000    -1.782000000    -3.080000000
H     5.377000000    -2.980000000    -3.858000000
O    -1.438000000     2.635000000     6.887000000
H    -2.199000000     2.980000000     6.419000000
H    -1.792000000     2.322000000     7.720000000
O     6.723000000    -1.539000000    -0.400000000
H     6.774000000    -0.595000000    -0.549000000
H     5.818000000    -1.766000000    -0.615000000
O    -5.837000000     1.451000000     2.468000000
H    -6.010000000     2.286000000     2.902000000
H    -6.131000000     0.790000000     3.095000000
O    -0.999000000    -4.545000000     4.474000000
H    -0.923000000    -4.847000000     3.569000000
H    -1.932000000    -4.361000000     4.588000000
O     1.295000000    -3.692000000     6.049000000
H     0.521000000    -4.107000000     5.669000000
H     1.206000000    -2.766000000     5.821000000
O     2.027000000     2.430000000     4.328000000
H     2.860000000     2.666000000     3.919000000
H     1.425000000     2.309000000     3.593000000
O    -2.777000000     2.922000000    -5.958000000
H    -3.004000000     2.715000000    -5.051000000
H    -2.419000000     2.106000000    -6.307000000
O     1.944000000    -2.602000000    -2.811000000
H     2.642000000    -3.106000000    -3.229000000
H     1.444000000    -2.236000000    -3.541000000
O    -2.365000000    -1.833000000    -3.297000000
H    -2.073000000    -0.922000000    -3.327000000
H    -1.578000000    -2.343000000    -3.488000000
O     1.456000000    -1.161000000     5.751000000
H     1.794000000    -0.614000000     6.460000000
H     0.529000000    -0.930000000     5.692000000
O    -2.284000000    -4.217000000    -0.588000000
H    -1.509000000    -3.678000000    -0.751000000
H    -2.801000000    -4.141000000    -1.390000000
O     0.876000000     2.685000000     1.569000000
H     0.272000000     1.982000000     1.332000000
H     1.720000000     2.405000000     1.214000000
O    -4.399000000    -2.942000000    -5.427000000
H    -4.002000000    -2.194000000    -4.982000000
H    -5.255000000    -2.624000000    -5.714000000
O    -3.368000000    -2.079000000     7.195000000
H    -2.585000000    -2.427000000     7.622000000
H    -3.151000000    -2.073000000     6.263000000
O     0.160000000     2.176000000    -5.564000000
H     0.346000000     1.596000000    -4.826000000
H    -0.607000000     1.788000000    -5.987000000
O     1.586000000    -0.442000000    -6.060000000
H     1.388000000     0.232000000    -6.710000000
H     1.412000000    -0.021000000    -5.218000000
O     1.756000000     5.167000000     1.970000000
H     2.676000000     5.280000000     2.208000000
H     1.575000000     4.244000000     2.144000000
O     3.938000000    -0.932000000     4.166000000
H     3.096000000    -0.722000000     4.569000000
H     4.587000000    -0.678000000     4.822000000
O     4.209000000    -3.217000000     2.393000000
H     4.235000000    -2.283000000     2.601000000
H     3.486000000    -3.305000000     1.771000000
O     3.653000000    -2.097000000    -0.305000000
H     3.322000000    -2.012000000    -1.200000000
H     3.248000000    -2.900000000     0.024000000
