158
-3038.76327
C     0.999000000    -0.278000000    -1.108000000
H     1.536000000    -0.536000000    -2.017000000
C    -0.051000000    -1.095000000    -0.697000000
H    -0.136000000    -2.066000000    -1.179000000
C    -0.871000000    -0.783000000     0.378000000
H    -1.571000000    -1.487000000     0.787000000
C    -0.672000000     0.356000000     1.046000000
H    -1.236000000     0.539000000     1.957000000
C     0.343000000     1.306000000     0.672000000
H     0.379000000     2.264000000     1.183000000
C     1.198000000     0.963000000    -0.422000000
C     2.285000000     1.916000000    -0.943000000
O     3.154000000     1.546000000    -1.767000000
O     2.292000000     3.131000000    -0.617000000
O     1.287000000     4.995000000    -5.189000000
H     1.871000000     5.519000000    -4.641000000
H     1.871000000     4.405000000    -5.666000000
O    -0.990000000     3.863000000     6.172000000
H    -1.123000000     4.000000000     5.234000000
H    -1.611000000     3.171000000     6.403000000
O    -2.810000000    -2.667000000     5.804000000
H    -3.419000000    -3.275000000     5.383000000
H    -2.414000000    -2.184000000     5.079000000
O     5.835000000     1.928000000    -2.843000000
H     6.044000000     2.718000000    -2.344000000
H     4.983000000     1.652000000    -2.508000000
O     5.996000000     5.910000000    -3.214000000
H     6.936000000     5.933000000    -3.393000000
H     5.896000000     5.229000000    -2.549000000
O    -1.503000000    -4.392000000     1.984000000
H    -2.035000000    -3.637000000     2.238000000
H    -0.632000000    -4.028000000     1.825000000
O    -1.724000000    -0.082000000    -5.964000000
H    -1.157000000     0.431000000    -5.389000000
H    -1.406000000     0.108000000    -6.847000000
O    -4.234000000    -5.611000000    -3.441000000
H    -4.593000000    -5.234000000    -2.638000000
H    -3.577000000    -6.238000000    -3.138000000
O     0.769000000    -3.254000000     3.084000000
H     1.586000000    -3.110000000     2.607000000
H     0.905000000    -4.082000000     3.545000000
O     0.852000000     5.386000000    -0.614000000
H     1.596000000     5.967000000    -0.454000000
H     1.224000000     4.505000000    -0.575000000
O    -5.804000000     0.625000000     4.146000000
H    -5.937000000     0.330000000     5.047000000
H    -5.990000000     1.563000000     4.171000000
O    -5.000000000    -4.466000000     4.080000000
H    -5.295000000    -4.737000000     3.210000000
H    -5.799000000    -4.188000000     4.527000000
O     6.867000000    -0.304000000    -4.234000000
H     5.984000000    -0.665000000    -4.311000000
H     6.768000000     0.451000000    -3.654000000
O     3.913000000    -0.822000000    -5.344000000
H     3.805000000    -0.592000000    -6.267000000
H     3.626000000    -0.043000000    -4.868000000
O    -1.866000000    -2.257000000    -3.336000000
H    -1.753000000    -1.629000000    -2.623000000
H    -2.136000000    -1.724000000    -4.084000000
O     3.506000000    -2.906000000     1.889000000
H     4.328000000    -2.750000000     2.356000000
H     3.626000000    -3.760000000     1.473000000
O     1.634000000    -0.801000000     6.294000000
H     2.306000000    -1.475000000     6.193000000
H     1.217000000    -0.748000000     5.434000000
O    -1.192000000     0.720000000     5.931000000
H    -0.533000000     0.438000000     5.297000000
H    -1.916000000     1.043000000     5.396000000
O    -4.859000000    -0.609000000     0.846000000
H    -4.590000000    -1.177000000     0.124000000
H    -4.798000000     0.277000000     0.489000000
O    -3.154000000    -4.966000000    -0.193000000
H    -3.503000000    -5.706000000     0.305000000
H    -2.381000000    -4.689000000     0.300000000
O    -1.730000000     3.439000000     3.390000000
H    -2.294000000     3.930000000     2.792000000
H    -2.217000000     2.635000000     3.572000000
O     6.461000000     3.018000000     0.846000000
H     6.643000000     2.079000000     0.875000000
H     5.551000000     3.096000000     1.132000000
O    -0.214000000     1.802000000    -4.738000000
H     0.731000000     1.777000000    -4.584000000
H    -0.349000000     2.584000000    -5.273000000
O     7.080000000     0.619000000     0.057000000
H     7.740000000     0.641000000     0.750000000
H     7.500000000     0.142000000    -0.658000000
O     0.460000000    -0.654000000     3.845000000
H     0.128000000    -1.524000000     3.622000000
H     0.907000000    -0.358000000     3.052000000
O     4.604000000     0.651000000     0.572000000
H     4.222000000     0.945000000    -0.255000000
H     5.478000000     0.339000000     0.335000000
O     3.254000000     7.354000000    -1.278000000
H     2.724000000     8.049000000    -0.887000000
H     4.158000000     7.612000000    -1.097000000
O     3.698000000     4.055000000     1.332000000
H     3.047000000     4.056000000     2.035000000
H     3.189000000     3.906000000     0.535000000
O    -0.568000000     6.466000000    -2.626000000
H    -0.172000000     6.293000000    -1.772000000
H     0.127000000     6.273000000    -3.255000000
O     0.309000000    -3.947000000    -3.473000000
H    -0.366000000    -3.296000000    -3.283000000
H    -0.096000000    -4.532000000    -4.114000000
O    -0.616000000     6.517000000     1.885000000
H    -1.249000000     7.017000000     1.369000000
H    -0.410000000     5.757000000     1.341000000
O     2.394000000    -5.535000000    -3.035000000
H     3.194000000    -5.046000000    -2.840000000
H     1.705000000    -4.871000000    -3.045000000
O    -6.888000000    -1.463000000     2.896000000
H    -6.587000000    -0.959000000     3.652000000
H    -6.249000000    -1.272000000     2.210000000
O     5.552000000     5.930000000     2.176000000
H     5.110000000     5.133000000     1.883000000
H     5.788000000     5.752000000     3.086000000
O     3.264000000     6.066000000    -3.559000000
H     4.126000000     5.653000000    -3.605000000
H     3.242000000     6.478000000    -2.695000000
O    -5.870000000    -4.012000000     1.369000000
H    -6.200000000    -3.124000000     1.238000000
H    -5.557000000    -4.281000000     0.505000000
O     6.188000000     3.514000000    -5.392000000
H     6.101000000     2.955000000    -4.620000000
H     5.721000000     4.317000000    -5.161000000
O     5.207000000     4.260000000    -1.362000000
H     4.401000000     3.784000000    -1.162000000
H     5.661000000     4.326000000    -0.522000000
O    -4.028000000     1.375000000    -1.598000000
H    -4.191000000     0.966000000    -2.448000000
H    -3.074000000     1.422000000    -1.534000000
O    -4.767000000     2.190000000     0.955000000
H    -4.389000000     3.022000000     1.241000000
H    -4.456000000     2.082000000     0.057000000
O     2.825000000    -0.333000000     2.306000000
H     3.342000000    -0.033000000     1.559000000
H     2.863000000    -1.288000000     2.255000000
O     1.819000000     4.206000000     3.956000000
H     1.697000000     3.683000000     4.748000000
H     0.931000000     4.414000000     3.666000000
O    -3.119000000     0.955000000     3.899000000
H    -4.060000000     0.904000000     3.731000000
H    -2.737000000     0.286000000     3.330000000
O    -1.384000000     1.362000000    -2.401000000
H    -0.864000000     0.898000000    -1.744000000
H    -0.824000000     1.385000000    -3.177000000
O     2.615000000     1.825000000    -4.591000000
H     3.284000000     2.445000000    -4.879000000
H     2.522000000     1.991000000    -3.653000000
O    -3.535000000    -2.452000000     2.503000000
H    -4.007000000    -1.924000000     1.859000000
H    -4.180000000    -3.093000000     2.805000000
O    -3.966000000    -2.544000000    -1.061000000
H    -3.585000000    -3.394000000    -0.841000000
H    -3.947000000    -2.513000000    -2.017000000
O    -1.974000000    -7.426000000     3.307000000
H    -2.279000000    -8.109000000     2.709000000
H    -2.179000000    -6.606000000     2.859000000
