158
-3051.44872
C     1.357000000    -0.109000000    -0.698000000
H     2.396000000    -0.148000000    -1.015000000
C     0.812000000    -1.115000000     0.109000000
H     1.400000000    -1.983000000     0.397000000
C    -0.483000000    -0.950000000     0.608000000
H    -0.876000000    -1.557000000     1.378000000
C    -1.125000000     0.215000000     0.284000000
H    -2.028000000     0.486000000     0.826000000
C    -0.700000000     1.103000000    -0.651000000
H    -1.444000000     1.867000000    -0.861000000
C     0.581000000     0.997000000    -1.092000000
C     1.195000000     2.281000000    -1.595000000
O     2.374000000     2.393000000    -1.524000000
O     0.398000000     3.193000000    -1.849000000
O     0.581000000     6.158000000    -4.926000000
H     1.388000000     6.275000000    -5.428000000
H    -0.051000000     6.740000000    -5.348000000
O    -1.233000000    -1.052000000     4.154000000
H    -0.298000000    -1.182000000     3.997000000
H    -1.441000000    -0.236000000     3.699000000
O     6.123000000     2.956000000    -2.653000000
H     6.901000000     3.486000000    -2.827000000
H     5.454000000     3.591000000    -2.396000000
O    -1.593000000    -4.502000000     1.976000000
H    -2.407000000    -4.018000000     1.837000000
H    -1.364000000    -4.329000000     2.889000000
O     1.335000000    -1.701000000     3.430000000
H     2.047000000    -1.983000000     2.856000000
H     1.242000000    -2.413000000     4.063000000
O    -0.454000000     5.829000000    -1.852000000
H    -0.147000000     6.198000000    -2.681000000
H    -0.292000000     4.889000000    -1.933000000
O    -4.810000000     1.009000000     4.547000000
H    -5.336000000     0.213000000     4.623000000
H    -4.607000000     1.250000000     5.451000000
O    -6.262000000    -1.371000000     4.096000000
H    -6.329000000    -1.726000000     3.209000000
H    -7.156000000    -1.110000000     4.317000000
O     5.353000000     0.302000000    -3.465000000
H     4.499000000     0.181000000    -3.879000000
H     5.355000000     1.217000000    -3.183000000
O    -2.006000000     4.758000000    -5.691000000
H    -1.870000000     4.559000000    -4.765000000
H    -1.166000000     4.558000000    -6.105000000
O     4.406000000    -1.349000000     0.954000000
H     4.496000000    -0.433000000     0.693000000
H     5.086000000    -1.807000000     0.461000000
O     2.976000000     0.422000000    -4.712000000
H     2.045000000     0.542000000    -4.526000000
H     3.115000000     0.873000000    -5.545000000
O    -4.594000000     6.076000000    -0.777000000
H    -5.154000000     6.322000000    -0.041000000
H    -4.121000000     5.302000000    -0.469000000
O     0.458000000     3.083000000    -6.877000000
H     1.145000000     3.347000000    -6.265000000
H     0.802000000     3.319000000    -7.739000000
O    -2.852000000    -1.384000000    -2.152000000
H    -2.275000000    -0.737000000    -1.747000000
H    -3.711000000    -0.962000000    -2.166000000
O     4.042000000    -3.086000000     3.110000000
H     3.579000000    -3.866000000     2.803000000
H     4.360000000    -2.666000000     2.311000000
O    -0.427000000     2.760000000     4.448000000
H     0.277000000     2.154000000     4.678000000
H    -0.997000000     2.255000000     3.867000000
O    -4.093000000     1.641000000    -0.493000000
H    -3.879000000     2.181000000    -1.254000000
H    -4.384000000     0.808000000    -0.865000000
O     5.216000000     3.747000000     1.490000000
H     6.122000000     3.461000000     1.369000000
H     4.798000000     3.026000000     1.961000000
O     0.094000000     0.509000000    -4.858000000
H    -0.603000000    -0.080000000    -4.568000000
H     0.096000000     0.426000000    -5.812000000
O     0.367000000    -5.196000000    -0.371000000
H     0.201000000    -4.755000000    -1.205000000
H    -0.385000000    -4.966000000     0.175000000
O     1.610000000     0.736000000     4.664000000
H     1.622000000    -0.207000000     4.500000000
H     2.265000000     1.091000000     4.062000000
O     4.471000000     1.293000000    -0.224000000
H     3.893000000     1.792000000    -0.802000000
H     5.354000000     1.559000000    -0.481000000
O     2.646000000    -4.985000000     1.128000000
H     3.282000000    -4.908000000     0.416000000
H     1.796000000    -5.007000000     0.688000000
O     2.018000000     2.223000000     1.525000000
H     1.571000000     3.064000000     1.611000000
H     2.143000000     2.113000000     0.582000000
O     3.625000000    -2.014000000    -1.988000000
H     3.583000000    -1.789000000    -1.058000000
H     4.058000000    -1.265000000    -2.397000000
O    -1.655000000    -3.508000000     5.095000000
H    -1.637000000    -2.674000000     4.626000000
H    -2.562000000    -3.597000000     5.389000000
O    -1.869000000    -1.347000000    -4.618000000
H    -2.138000000    -1.631000000    -3.744000000
H    -1.548000000    -2.144000000    -5.040000000
O    -2.295000000    -0.508000000     6.523000000
H    -3.167000000    -0.889000000     6.420000000
H    -1.847000000    -0.712000000     5.702000000
O     4.055000000    -4.720000000    -2.165000000
H     3.677000000    -3.843000000    -2.228000000
H     4.809000000    -4.699000000    -2.754000000
O    -1.500000000     6.988000000     0.342000000
H    -2.323000000     7.351000000     0.014000000
H    -1.175000000     6.444000000    -0.375000000
O     0.263000000    -2.980000000    -2.300000000
H     1.031000000    -2.571000000    -1.901000000
H    -0.445000000    -2.352000000    -2.154000000
O    -6.081000000     2.017000000     2.120000000
H    -5.463000000     1.716000000     2.786000000
H    -5.594000000     1.962000000     1.298000000
O    -6.399000000    -2.170000000     0.873000000
H    -7.340000000    -1.994000000     0.877000000
H    -6.325000000    -3.064000000     0.538000000
O    -2.977000000    -6.607000000     0.538000000
H    -2.379000000    -5.989000000     0.959000000
H    -3.707000000    -6.689000000     1.152000000
O     4.420000000     4.291000000    -5.142000000
H     5.064000000     3.967000000    -4.512000000
H     3.575000000     4.147000000    -4.717000000
O     4.155000000     4.406000000    -1.234000000
H     3.334000000     3.915000000    -1.270000000
H     4.156000000     4.807000000    -0.365000000
O    -3.778000000     3.418000000    -2.583000000
H    -4.470000000     3.415000000    -3.244000000
H    -2.974000000     3.254000000    -3.078000000
O    -3.348000000     3.388000000     1.941000000
H    -4.149000000     3.907000000     2.016000000
H    -3.561000000     2.712000000     1.297000000
O     3.919000000     0.782000000     2.926000000
H     3.265000000     1.174000000     2.348000000
H     4.001000000    -0.120000000     2.617000000
O     0.653000000     4.482000000     0.652000000
H     0.517000000     5.428000000     0.707000000
H     0.106000000     4.203000000    -0.082000000
O    -2.516000000     1.201000000     3.266000000
H    -3.350000000     0.935000000     3.652000000
H    -2.698000000     2.052000000     2.866000000
O    -1.339000000     3.234000000    -3.749000000
H    -0.801000000     3.302000000    -2.960000000
H    -0.926000000     2.540000000    -4.262000000
O     1.858000000     3.813000000    -4.042000000
H     1.090000000     4.378000000    -4.129000000
H     1.871000000     3.568000000    -3.117000000
O    -3.411000000    -2.114000000     1.227000000
H    -4.122000000    -2.191000000     0.591000000
H    -3.159000000    -1.191000000     1.194000000
O    -5.151000000    -0.191000000    -1.945000000
H    -5.644000000    -1.011000000    -1.929000000
H    -5.687000000     0.402000000    -2.472000000
O     2.013000000    -3.243000000     5.518000000
H     2.637000000    -3.960000000     5.629000000
H     2.260000000    -2.605000000     6.188000000
O    -4.880000000    -4.665000000     3.442000000
H    -4.945000000    -4.101000000     2.672000000
H    -5.730000000    -5.102000000     3.491000000
