158
-3053.10183
C     0.256000000     0.215000000    -1.479000000
H     0.409000000     0.224000000    -2.555000000
C    -0.184000000    -0.925000000    -0.846000000
H    -0.443000000    -1.827000000    -1.395000000
C    -0.301000000    -1.043000000     0.540000000
H    -0.598000000    -1.999000000     1.126000000
C    -0.004000000     0.047000000     1.328000000
H    -0.134000000    -0.074000000     2.401000000
C     0.344000000     1.232000000     0.745000000
H     0.444000000     2.103000000     1.388000000
C     0.507000000     1.332000000    -0.677000000
C     0.848000000     2.650000000    -1.350000000
O     0.807000000     2.720000000    -2.554000000
O     1.019000000     3.706000000    -0.778000000
O    -1.817000000     5.238000000    -4.818000000
H    -1.131000000     5.134000000    -5.477000000
H    -1.358000000     5.563000000    -4.044000000
O     3.038000000     4.117000000    -3.522000000
H     3.532000000     3.379000000    -3.165000000
H     2.147000000     3.782000000    -3.623000000
O    -2.735000000     0.432000000    -4.140000000
H    -3.532000000     0.792000000    -4.530000000
H    -2.341000000    -0.090000000    -4.838000000
O    -2.491000000    -4.307000000     3.391000000
H    -2.962000000    -3.495000000     3.578000000
H    -2.341000000    -4.700000000     4.251000000
O    -0.812000000     5.224000000     0.229000000
H    -0.262000000     5.498000000     0.963000000
H    -0.252000000     4.642000000    -0.286000000
O     4.392000000     0.128000000    -3.522000000
H     3.840000000    -0.142000000    -4.256000000
H     4.909000000     0.857000000    -3.866000000
O     2.218000000    -0.615000000    -5.460000000
H     1.879000000    -1.169000000    -4.756000000
H     1.479000000    -0.057000000    -5.702000000
O     1.381000000     7.772000000    -3.459000000
H     0.809000000     7.051000000    -3.197000000
H     1.100000000     7.989000000    -4.349000000
O     3.502000000    -3.679000000    -1.368000000
H     3.395000000    -2.794000000    -1.019000000
H     4.372000000    -3.675000000    -1.768000000
O    -0.502000000    -5.252000000     1.361000000
H    -1.123000000    -5.267000000     2.089000000
H    -0.786000000    -5.964000000     0.788000000
O     5.075000000     2.578000000     0.680000000
H     4.575000000     1.764000000     0.753000000
H     4.614000000     3.193000000     1.250000000
O    -3.390000000    -2.186000000    -2.416000000
H    -4.014000000    -1.840000000    -1.778000000
H    -2.905000000    -1.418000000    -2.718000000
O    -3.347000000     4.587000000     4.280000000
H    -2.405000000     4.446000000     4.182000000
H    -3.710000000     4.376000000     3.420000000
O    -0.959000000     3.190000000     3.434000000
H    -1.549000000     2.697000000     2.864000000
H    -0.905000000     2.666000000     4.233000000
O    -0.383000000    -4.266000000    -4.371000000
H     0.063000000    -3.424000000    -4.280000000
H    -0.135000000    -4.754000000    -3.585000000
O    -4.513000000    -5.688000000    -0.794000000
H    -4.004000000    -5.632000000     0.015000000
H    -5.420000000    -5.778000000    -0.500000000
O    -4.256000000     1.935000000     4.970000000
H    -3.959000000     1.466000000     4.190000000
H    -3.729000000     2.734000000     4.984000000
O     3.338000000     0.316000000     1.176000000
H     3.597000000    -0.464000000     1.665000000
H     2.444000000     0.495000000     1.466000000
O    -1.872000000     2.603000000    -2.744000000
H    -0.951000000     2.687000000    -2.497000000
H    -1.884000000     1.890000000    -3.383000000
O    -0.886000000    -7.695000000     0.201000000
H    -0.570000000    -8.597000000     0.242000000
H    -1.377000000    -7.649000000    -0.620000000
O     3.882000000     6.552000000    -4.672000000
H     3.686000000     5.672000000    -4.351000000
H     3.205000000     7.105000000    -4.281000000
O    -0.577000000     1.525000000     5.674000000
H    -0.481000000     2.211000000     6.334000000
H    -0.999000000     0.802000000     6.139000000
O     3.449000000    -0.926000000    -1.322000000
H     3.950000000    -0.480000000    -2.005000000
H     3.523000000    -0.353000000    -0.558000000
O     0.569000000     6.882000000     1.872000000
H     1.075000000     7.073000000     2.661000000
H     1.191000000     7.001000000     1.154000000
O     2.931000000     2.540000000     4.844000000
H     2.438000000     3.183000000     4.334000000
H     3.568000000     3.060000000     5.334000000
O    -0.023000000     0.406000000    -6.408000000
H    -0.061000000     0.698000000    -7.318000000
H    -0.777000000    -0.176000000    -6.312000000
O    -3.176000000     4.229000000    -1.081000000
H    -2.461000000     4.399000000    -0.468000000
H    -2.766000000     3.749000000    -1.801000000
O     1.128000000    -5.028000000    -1.795000000
H     1.929000000    -4.551000000    -2.012000000
H     0.730000000    -4.519000000    -1.089000000
O     5.730000000     3.762000000    -1.605000000
H     6.338000000     4.498000000    -1.539000000
H     5.423000000     3.623000000    -0.709000000
O     2.721000000     4.127000000    -6.345000000
H     2.999000000     5.043000000    -6.315000000
H     2.819000000     3.818000000    -5.444000000
O    -2.056000000    -1.388000000    -6.052000000
H    -2.881000000    -0.997000000    -6.340000000
H    -2.113000000    -2.302000000    -6.332000000
O    -3.181000000    -4.651000000    -3.623000000
H    -2.402000000    -4.772000000    -4.167000000
H    -3.013000000    -3.840000000    -3.142000000
O     1.834000000    -2.493000000    -3.563000000
H     2.288000000    -3.105000000    -4.142000000
H     2.484000000    -2.266000000    -2.897000000
O    -0.240000000     5.667000000    -2.506000000
H     0.187000000     4.811000000    -2.478000000
H    -0.757000000     5.704000000    -1.701000000
O     0.015000000     5.173000000    -6.605000000
H     0.110000000     5.032000000    -7.547000000
H     0.329000000     4.360000000    -6.209000000
O     1.658000000     0.307000000     4.316000000
H     0.923000000     0.666000000     4.813000000
H     2.336000000     0.981000000     4.371000000
O    -0.255000000    -2.127000000     6.384000000
H     0.011000000    -1.674000000     5.583000000
H    -0.128000000    -3.055000000     6.187000000
O     3.414000000     4.393000000     1.981000000
H     2.671000000     4.643000000     2.530000000
H     3.129000000     4.589000000     1.089000000
O     3.124000000     5.216000000    -0.941000000
H     3.581000000     4.988000000    -1.750000000
H     2.359000000     4.640000000    -0.928000000
O    -2.973000000     1.999000000     1.925000000
H    -3.788000000     2.498000000     1.870000000
H    -2.926000000     1.525000000     1.095000000
O     2.203000000    -5.542000000     1.697000000
H     1.392000000    -5.430000000     1.202000000
H     2.726000000    -4.770000000     1.479000000
O     3.080000000    -1.848000000     3.494000000
H     2.472000000    -2.580000000     3.392000000
H     2.540000000    -1.135000000     3.836000000
O     1.350000000     4.462000000     3.797000000
H     0.510000000     4.057000000     3.583000000
H     1.124000000     5.350000000     4.073000000
O    -2.913000000     0.731000000    -0.675000000
H    -2.077000000     0.268000000    -0.612000000
H    -2.784000000     1.363000000    -1.382000000
O     1.721000000     7.824000000    -0.445000000
H     2.397000000     7.294000000    -0.866000000
H     1.280000000     8.269000000    -1.169000000
O     0.516000000     3.045000000    -5.009000000
H     0.292000000     2.185000000    -5.364000000
H     0.463000000     2.933000000    -4.060000000
O    -3.986000000    -1.784000000     3.378000000
H    -4.040000000    -1.154000000     2.660000000
H    -4.667000000    -1.508000000     3.991000000
O     0.780000000    -3.207000000     3.548000000
H     0.351000000    -3.553000000     4.331000000
H     0.482000000    -3.778000000     2.840000000
