158
-3011.11725
C     0.174000000    -0.151000000    -1.442000000
H     0.459000000    -0.229000000    -2.488000000
C     0.923000000    -0.804000000    -0.494000000
H     1.834000000    -1.373000000    -0.658000000
C     0.650000000    -0.593000000     0.816000000
H     1.314000000    -1.054000000     1.559000000
C    -0.393000000     0.151000000     1.167000000
H    -0.489000000     0.302000000     2.239000000
C    -1.239000000     0.800000000     0.203000000
H    -2.060000000     1.443000000     0.509000000
C    -0.895000000     0.690000000    -1.132000000
C    -1.599000000     1.634000000    -2.084000000
O    -1.382000000     1.471000000    -3.295000000
O    -2.441000000     2.397000000    -1.688000000
O    -1.697000000    -3.645000000     5.204000000
H    -2.228000000    -4.430000000     5.073000000
H    -1.631000000    -3.252000000     4.334000000
O    -2.571000000     6.721000000    -0.514000000
H    -3.117000000     6.063000000    -0.085000000
H    -3.080000000     6.996000000    -1.276000000
O    -2.202000000     4.691000000    -2.835000000
H    -3.081000000     5.064000000    -2.915000000
H    -2.331000000     3.877000000    -2.349000000
O     3.550000000     1.052000000    -2.049000000
H     3.782000000     1.116000000    -2.975000000
H     2.601000000     0.926000000    -2.048000000
O    -3.769000000     2.838000000     3.812000000
H    -4.110000000     3.462000000     4.453000000
H    -4.490000000     2.226000000     3.666000000
O    -2.143000000     0.071000000     5.507000000
H    -1.300000000    -0.351000000     5.343000000
H    -2.043000000     0.953000000     5.150000000
O    -5.742000000     4.183000000    -3.051000000
H    -5.376000000     5.068000000    -3.041000000
H    -5.991000000     4.038000000    -3.963000000
O     0.355000000     1.652000000    -5.276000000
H     0.116000000     0.790000000    -5.617000000
H    -0.271000000     1.813000000    -4.570000000
O     0.979000000    -3.812000000    -2.035000000
H     1.455000000    -4.484000000    -1.547000000
H     0.130000000    -3.753000000    -1.597000000
O    -4.604000000    -0.617000000    -0.492000000
H    -4.625000000     0.219000000    -0.025000000
H    -4.607000000    -1.277000000     0.201000000
O     3.806000000    -5.906000000     0.140000000
H     2.907000000    -6.062000000    -0.149000000
H     4.336000000    -6.031000000    -0.647000000
O     6.387000000     0.229000000    -1.759000000
H     5.975000000     0.958000000    -1.295000000
H     5.694000000    -0.427000000    -1.837000000
O     2.229000000    -4.883000000     2.583000000
H     1.568000000    -4.225000000     2.366000000
H     2.455000000    -5.282000000     1.742000000
O    -4.281000000     5.055000000     0.762000000
H    -3.978000000     4.275000000     1.225000000
H    -5.202000000     4.877000000     0.568000000
O    -3.036000000     2.723000000    -5.371000000
H    -2.917000000     2.536000000    -4.440000000
H    -2.260000000     3.227000000    -5.616000000
O     4.956000000    -3.188000000     0.813000000
H     5.827000000    -3.436000000     1.122000000
H     4.472000000    -4.012000000     0.773000000
O     2.049000000     0.802000000     5.459000000
H     2.659000000     0.094000000     5.668000000
H     1.770000000     1.137000000     6.311000000
O    -2.158000000    -1.205000000    -4.293000000
H    -1.922000000    -0.320000000    -4.016000000
H    -3.046000000    -1.332000000    -3.961000000
O     3.748000000    -0.957000000     3.613000000
H     4.351000000    -1.018000000     2.873000000
H     3.367000000    -0.082000000     3.540000000
O     3.798000000     3.766000000     1.385000000
H     3.515000000     2.980000000     1.853000000
H     4.347000000     4.234000000     2.014000000
O     4.875000000    -2.175000000    -1.769000000
H     4.920000000    -3.006000000    -2.243000000
H     4.734000000    -2.428000000    -0.856000000
O    -5.023000000     2.023000000    -6.998000000
H    -4.221000000     2.217000000    -6.514000000
H    -5.394000000     1.261000000    -6.553000000
O    -5.437000000     1.088000000     2.885000000
H    -5.234000000     1.256000000     1.965000000
H    -6.340000000     1.387000000     2.990000000
O    -4.614000000    -1.637000000    -3.386000000
H    -4.551000000    -1.332000000    -2.481000000
H    -4.580000000    -2.591000000    -3.320000000
O    -0.025000000    -1.194000000     5.300000000
H     0.290000000    -2.076000000     5.499000000
H     0.734000000    -0.630000000     5.445000000
O    -0.017000000    -2.627000000    -5.835000000
H    -0.075000000    -3.247000000    -6.562000000
H    -0.221000000    -1.778000000    -6.228000000
O    -4.631000000     2.020000000     0.369000000
H    -5.301000000     2.680000000     0.193000000
H    -3.953000000     2.187000000    -0.285000000
O    -1.894000000    -2.981000000    -0.388000000
H    -2.839000000    -2.915000000    -0.528000000
H    -1.558000000    -2.113000000    -0.612000000
O    -1.567000000    -3.901000000    -3.623000000
H    -0.771000000    -4.088000000    -3.125000000
H    -1.406000000    -3.045000000    -4.019000000
O    -1.071000000     4.161000000    -6.596000000
H    -0.576000000     4.819000000    -7.084000000
H    -0.449000000     3.446000000    -6.460000000
O    -4.821000000     1.510000000    -3.022000000
H    -5.072000000     2.432000000    -3.077000000
H    -3.950000000     1.523000000    -2.625000000
O    -6.804000000     4.108000000    -0.454000000
H    -6.481000000     3.912000000    -1.334000000
H    -7.614000000     4.596000000    -0.600000000
O     0.419000000     3.800000000    -3.548000000
H     0.431000000     3.255000000    -4.336000000
H    -0.509000000     3.972000000    -3.390000000
O    -2.892000000    -2.127000000    -6.714000000
H    -2.280000000    -1.604000000    -7.233000000
H    -2.591000000    -2.023000000    -5.812000000
O     2.969000000     1.625000000    -4.724000000
H     3.250000000     2.521000000    -4.542000000
H     2.029000000     1.696000000    -4.887000000
O     3.142000000    -2.167000000     6.144000000
H     2.407000000    -2.672000000     5.796000000
H     3.630000000    -1.890000000     5.369000000
O    -5.704000000     0.238000000    -5.290000000
H    -5.636000000     0.653000000    -4.430000000
H    -5.247000000    -0.597000000    -5.190000000
O     0.513000000     3.815000000     2.453000000
H     1.298000000     4.322000000     2.658000000
H     0.280000000     4.083000000     1.564000000
O    -1.042000000     2.363000000     4.205000000
H    -1.932000000     2.522000000     3.890000000
H    -0.479000000     2.794000000     3.561000000
O    -0.437000000    -3.935000000     2.072000000
H    -0.427000000    -4.856000000     1.812000000
H    -1.209000000    -3.572000000     1.637000000
O     1.068000000    -3.827000000     5.438000000
H     1.402000000    -4.357000000     6.162000000
H     0.164000000    -4.122000000     5.323000000
O     2.282000000    -3.009000000    -4.283000000
H     1.452000000    -2.994000000    -4.760000000
H     2.058000000    -3.363000000    -3.423000000
O     2.587000000     1.625000000     2.931000000
H     1.745000000     1.977000000     2.642000000
H     2.448000000     1.396000000     3.850000000
O     3.672000000    -5.194000000     4.852000000
H     3.004000000    -4.688000000     5.313000000
H     3.302000000    -5.342000000     3.982000000
O     5.416000000    -0.459000000     1.109000000
H     5.422000000    -1.397000000     0.915000000
H     4.707000000    -0.107000000     0.571000000
O     1.872000000     4.972000000    -1.708000000
H     1.175000000     4.515000000    -2.179000000
H     2.677000000     4.692000000    -2.142000000
O    -0.577000000     4.512000000     0.188000000
H    -1.067000000     4.378000000    -0.624000000
H    -1.213000000     4.898000000     0.790000000
O    -4.539000000    -1.168000000     3.969000000
H    -4.795000000    -0.263000000     3.792000000
H    -3.725000000    -1.094000000     4.467000000
