158
-3062.01695
C     0.224000000     0.205000000    -1.489000000
H     0.265000000     0.146000000    -2.574000000
C     0.145000000    -1.041000000    -0.837000000
H     0.326000000    -1.994000000    -1.328000000
C    -0.069000000    -1.077000000     0.547000000
H    -0.042000000    -1.986000000     1.212000000
C    -0.257000000     0.086000000     1.268000000
H    -0.275000000     0.081000000     2.354000000
C    -0.086000000     1.326000000     0.630000000
H    -0.195000000     2.189000000     1.283000000
C     0.082000000     1.405000000    -0.737000000
C     0.210000000     2.799000000    -1.385000000
O     0.570000000     2.779000000    -2.535000000
O     0.273000000     3.825000000    -0.674000000
O    -4.242000000     1.587000000    -5.037000000
H    -4.014000000     1.791000000    -5.944000000
H    -3.430000000     1.252000000    -4.656000000
O     0.853000000     5.139000000    -3.778000000
H     0.638000000     4.454000000    -3.146000000
H     0.126000000     5.126000000    -4.401000000
O     0.365000000    -6.060000000     1.418000000
H    -0.348000000    -6.186000000     2.044000000
H     0.706000000    -5.188000000     1.615000000
O    -3.158000000    -0.646000000    -0.179000000
H    -2.406000000    -0.769000000     0.400000000
H    -3.431000000     0.259000000    -0.027000000
O    -4.552000000    -2.149000000     2.849000000
H    -5.033000000    -2.815000000     2.358000000
H    -4.477000000    -2.510000000     3.732000000
O     3.451000000     1.308000000    -0.232000000
H     3.510000000     2.246000000    -0.053000000
H     2.515000000     1.113000000    -0.183000000
O     2.700000000     1.777000000    -3.692000000
H     1.808000000     2.111000000    -3.594000000
H     3.085000000     1.861000000    -2.820000000
O     2.723000000    -1.646000000     5.923000000
H     2.828000000    -1.222000000     5.071000000
H     2.353000000    -2.505000000     5.719000000
O     0.766000000    -3.881000000     5.295000000
H     0.585000000    -4.797000000     5.086000000
H    -0.081000000    -3.443000000     5.204000000
O     0.916000000     6.391000000     0.182000000
H     0.850000000     6.344000000     1.135000000
H     0.623000000     5.532000000    -0.121000000
O    -3.049000000     6.325000000     1.635000000
H    -2.727000000     7.178000000     1.345000000
H    -2.257000000     5.810000000     1.789000000
O     4.380000000    -4.341000000     1.350000000
H     4.233000000    -5.287000000     1.339000000
H     3.696000000    -3.999000000     1.926000000
O     1.764000000    -3.443000000     2.655000000
H     1.702000000    -3.824000000     3.530000000
H     2.092000000    -2.556000000     2.802000000
O    -4.192000000     1.667000000     0.876000000
H    -4.144000000     2.386000000     0.246000000
H    -5.112000000     1.404000000     0.869000000
O    -3.730000000    -3.252000000    -0.205000000
H    -3.426000000    -3.369000000    -1.105000000
H    -3.842000000    -2.306000000    -0.110000000
O     1.969000000    -1.717000000    -4.165000000
H     2.141000000    -2.572000000    -3.769000000
H     2.618000000    -1.135000000    -3.769000000
O     1.404000000    -4.386000000    -3.806000000
H     0.723000000    -4.868000000    -3.336000000
H     0.983000000    -4.110000000    -4.620000000
O    -2.322000000     4.123000000    -1.975000000
H    -2.752000000     4.952000000    -1.765000000
H    -1.647000000     4.026000000    -1.303000000
O    -3.967000000    -5.855000000     0.991000000
H    -3.846000000    -5.030000000     0.522000000
H    -4.906000000    -5.892000000     1.173000000
O     0.818000000     3.792000000     4.943000000
H     0.691000000     4.544000000     4.364000000
H    -0.003000000     3.305000000     4.887000000
O    -1.971000000    -2.512000000     4.685000000
H    -2.737000000    -3.087000000     4.701000000
H    -2.024000000    -2.067000000     3.840000000
O    -2.932000000    -4.318000000    -2.780000000
H    -2.342000000    -4.972000000    -2.404000000
H    -2.358000000    -3.593000000    -3.028000000
O     0.210000000     2.229000000    -6.079000000
H     0.693000000     2.026000000    -6.880000000
H     0.127000000     1.389000000    -5.629000000
O     3.944000000    -3.508000000    -2.430000000
H     3.173000000    -4.046000000    -2.612000000
H     4.392000000    -3.965000000    -1.718000000
O     4.092000000    -0.816000000    -2.395000000
H     4.187000000    -0.292000000    -1.600000000
H     4.111000000    -1.723000000    -2.088000000
O    -4.357000000     2.603000000    -2.210000000
H    -3.788000000     3.372000000    -2.206000000
H    -4.333000000     2.292000000    -3.115000000
O    -1.698000000     1.457000000    -3.946000000
H    -0.926000000     1.026000000    -4.311000000
H    -1.345000000     2.112000000    -3.344000000
O     2.157000000     7.546000000    -3.704000000
H     1.702000000     6.709000000    -3.800000000
H     1.992000000     8.004000000    -4.529000000
O    -3.415000000     6.664000000    -2.738000000
H    -3.843000000     7.312000000    -2.178000000
H    -2.481000000     6.766000000    -2.552000000
O     3.181000000     5.608000000    -1.629000000
H     2.654000000     6.292000000    -1.215000000
H     2.605000000     5.231000000    -2.294000000
O    -0.453000000    -6.310000000     4.822000000
H    -0.053000000    -7.179000000     4.874000000
H    -1.086000000    -6.381000000     4.108000000
O    -0.942000000     4.861000000    -5.822000000
H    -0.694000000     3.936000000    -5.795000000
H    -1.806000000     4.865000000    -6.232000000
O    -3.489000000    -0.888000000    -2.833000000
H    -2.539000000    -0.886000000    -2.949000000
H    -3.616000000    -0.747000000    -1.895000000
O    -0.008000000    -0.364000000    -5.437000000
H     0.003000000    -0.666000000    -6.345000000
H     0.817000000    -0.679000000    -5.069000000
O     1.072000000     6.076000000     2.914000000
H     0.675000000     6.717000000     3.503000000
H     2.007000000     6.117000000     3.111000000
O    -0.113000000    -0.712000000     5.476000000
H    -0.867000000    -1.289000000     5.355000000
H     0.000000000    -0.662000000     6.425000000
O    -1.702000000     2.630000000     6.858000000
H    -1.491000000     2.454000000     5.941000000
H    -1.252000000     1.939000000     7.344000000
O    -2.109000000    -7.013000000     2.755000000
H    -2.747000000    -7.448000000     3.321000000
H    -2.639000000    -6.502000000     2.143000000
O    -1.209000000    -2.467000000    -3.916000000
H    -1.095000000    -3.164000000    -4.562000000
H    -0.751000000    -1.715000000    -4.292000000
O     2.779000000     1.852000000     3.371000000
H     2.945000000     2.287000000     2.535000000
H     2.258000000     2.481000000     3.869000000
O    -0.939000000     7.701000000    -2.331000000
H     0.009000000     7.573000000    -2.306000000
H    -1.054000000     8.649000000    -2.273000000
O    -1.173000000     1.798000000     4.402000000
H    -0.479000000     1.163000000     4.579000000
H    -1.855000000     1.291000000     3.963000000
O     2.624000000    -0.825000000     3.069000000
H     3.542000000    -1.044000000     3.232000000
H     2.602000000     0.132000000     3.071000000
O    -0.902000000     4.843000000     1.952000000
H    -0.121000000     5.154000000     2.411000000
H    -0.561000000     4.308000000     1.235000000
O     3.295000000     4.054000000    -5.307000000
H     3.314000000     3.314000000    -4.699000000
H     2.557000000     4.587000000    -5.012000000
O    -2.953000000    -0.056000000     2.943000000
H    -3.540000000    -0.805000000     2.848000000
H    -3.163000000     0.509000000     2.199000000
O    -0.755000000    -6.003000000    -2.367000000
H    -0.982000000    -6.759000000    -2.908000000
H    -0.530000000    -6.377000000    -1.515000000
O     2.731000000     3.849000000     0.358000000
H     1.866000000     3.923000000    -0.046000000
H     3.222000000     4.593000000     0.009000000
