158
-3024.13378
C     0.213000000    -0.046000000    -1.452000000
H     0.287000000    -0.228000000    -2.521000000
C     0.212000000    -1.178000000    -0.593000000
H     0.304000000    -2.180000000    -1.004000000
C    -0.059000000    -0.959000000     0.767000000
H    -0.252000000    -1.756000000     1.498000000
C    -0.080000000     0.359000000     1.307000000
H    -0.303000000     0.510000000     2.360000000
C     0.032000000     1.446000000     0.414000000
H     0.037000000     2.437000000     0.860000000
C     0.181000000     1.265000000    -0.936000000
C     0.280000000     2.491000000    -1.886000000
O     0.525000000     2.253000000    -3.007000000
O    -0.239000000     3.535000000    -1.526000000
O     4.224000000     2.448000000    -4.613000000
H     4.249000000     3.383000000    -4.817000000
H     4.564000000     2.389000000    -3.720000000
O    -0.244000000    -3.646000000     7.447000000
H     0.245000000    -3.275000000     6.713000000
H     0.056000000    -4.553000000     7.500000000
O    -2.040000000     2.639000000     4.649000000
H    -1.948000000     2.147000000     5.465000000
H    -2.732000000     3.275000000     4.829000000
O    -3.839000000     4.121000000    -3.114000000
H    -4.098000000     3.325000000    -3.578000000
H    -3.401000000     4.654000000    -3.778000000
O     3.894000000    -0.345000000    -5.185000000
H     4.633000000    -0.624000000    -4.644000000
H     3.762000000     0.574000000    -4.954000000
O     2.232000000     4.996000000    -3.832000000
H     1.444000000     4.458000000    -3.757000000
H     2.132000000     5.454000000    -4.666000000
O     1.773000000    -6.112000000    -0.085000000
H     0.823000000    -6.171000000     0.009000000
H     2.104000000    -6.122000000     0.813000000
O    -2.918000000    -0.462000000    -0.974000000
H    -2.106000000    -0.968000000    -0.985000000
H    -3.008000000    -0.172000000    -0.066000000
O    -2.438000000    -3.811000000     2.565000000
H    -2.395000000    -2.864000000     2.692000000
H    -3.374000000    -4.006000000     2.526000000
O     2.854000000     0.786000000     0.955000000
H     2.986000000     1.625000000     1.395000000
H     1.904000000     0.704000000     0.873000000
O     1.262000000     2.698000000    -5.464000000
H     0.761000000     2.840000000    -4.661000000
H     2.121000000     2.402000000    -5.160000000
O     1.801000000    -3.083000000     5.747000000
H     1.492000000    -3.068000000     4.841000000
H     2.053000000    -2.178000000     5.930000000
O     1.261000000    -5.561000000     3.976000000
H     1.476000000    -6.456000000     4.240000000
H     0.313000000    -5.498000000     4.093000000
O    -0.086000000     6.255000000    -1.875000000
H     0.841000000     6.460000000    -1.760000000
H    -0.101000000     5.320000000    -2.078000000
O     3.251000000    -0.451000000     4.342000000
H     3.314000000    -0.237000000     3.411000000
H     2.421000000    -0.064000000     4.621000000
O    -3.877000000     5.397000000     1.773000000
H    -4.427000000     5.517000000     0.999000000
H    -2.992000000     5.291000000     1.424000000
O     3.395000000    -4.334000000     2.906000000
H     2.686000000    -4.852000000     3.287000000
H     2.953000000    -3.594000000     2.489000000
O    -3.575000000     1.176000000     1.281000000
H    -3.032000000     1.771000000     0.765000000
H    -4.473000000     1.461000000     1.109000000
O    -3.148000000    -3.091000000    -1.829000000
H    -2.406000000    -3.031000000    -2.431000000
H    -3.432000000    -2.186000000    -1.708000000
O    -4.556000000     1.449000000     4.066000000
H    -4.610000000     0.984000000     3.231000000
H    -3.781000000     2.003000000     3.982000000
O     1.972000000    -1.629000000    -3.524000000
H     2.182000000    -1.527000000    -4.452000000
H     1.729000000    -2.550000000    -3.433000000
O     1.499000000    -4.229000000    -3.289000000
H     2.165000000    -4.798000000    -2.903000000
H     1.374000000    -4.572000000    -4.174000000
O    -3.279000000     3.100000000    -0.622000000
H    -3.526000000     3.201000000    -1.542000000
H    -2.351000000     3.335000000    -0.596000000
O    -3.228000000    -5.338000000    -0.106000000
H    -3.270000000    -4.563000000    -0.666000000
H    -4.130000000    -5.657000000    -0.072000000
O     1.605000000     1.729000000     3.781000000
H     1.269000000     1.919000000     4.657000000
H     1.547000000     2.564000000     3.316000000
O    -1.627000000    -5.320000000     4.735000000
H    -1.675000000    -4.865000000     3.895000000
H    -2.215000000    -4.828000000     5.308000000
O    -0.903000000    -2.969000000    -3.631000000
H    -0.087000000    -3.109000000    -3.150000000
H    -0.661000000    -3.079000000    -4.551000000
O     5.325000000    -0.686000000    -2.835000000
H     5.494000000    -1.261000000    -2.088000000
H     4.460000000    -0.316000000    -2.661000000
O     0.802000000     3.339000000    -8.135000000
H     1.330000000     2.682000000    -8.590000000
H     1.079000000     3.278000000    -7.221000000
O     2.531000000     7.290000000    -1.491000000
H     2.672000000     7.935000000    -0.797000000
H     2.971000000     6.500000000    -1.177000000
O     3.221000000    -2.506000000    -1.174000000
H     2.930000000    -2.069000000    -1.974000000
H     2.942000000    -3.416000000    -1.283000000
O    -1.462000000     1.747000000    -4.884000000
H    -1.095000000     1.601000000    -5.756000000
H    -0.700000000     1.899000000    -4.325000000
O    -2.835000000     6.969000000    -2.081000000
H    -2.912000000     6.129000000    -1.629000000
H    -1.893000000     7.101000000    -2.184000000
O    -0.375000000    -2.948000000    -6.236000000
H    -0.455000000    -3.579000000    -6.952000000
H     0.532000000    -2.646000000    -6.285000000
O    -5.004000000    -4.404000000     2.503000000
H    -4.996000000    -5.138000000     3.116000000
H    -5.481000000    -4.733000000     1.741000000
O     3.375000000     4.404000000    -1.043000000
H     4.229000000     4.060000000    -1.305000000
H     2.744000000     3.861000000    -1.515000000
O    -3.486000000     1.052000000    -3.189000000
H    -2.777000000     1.139000000    -3.826000000
H    -3.117000000     0.508000000    -2.493000000
O     0.888000000     5.587000000     2.427000000
H     0.686000000     5.676000000     3.358000000
H     1.844000000     5.554000000     2.392000000
O    -0.879000000    -7.281000000     1.022000000
H    -1.046000000    -7.437000000     1.951000000
H    -1.627000000    -6.761000000     0.728000000
O    -2.425000000    -1.207000000    -6.627000000
H    -1.811000000    -1.691000000    -6.075000000
H    -1.935000000    -0.436000000    -6.912000000
O     1.344000000    -0.221000000     6.416000000
H     1.075000000     0.574000000     6.877000000
H     0.623000000    -0.403000000     5.813000000
O    -0.626000000     8.183000000     0.530000000
H    -0.893000000     8.876000000    -0.074000000
H    -1.039000000     7.392000000     0.184000000
O    -0.705000000    -1.346000000     4.970000000
H    -1.249000000    -1.468000000     5.748000000
H    -1.290000000    -0.941000000     4.330000000
O     3.235000000    -1.953000000     1.362000000
H     3.057000000    -2.259000000     0.472000000
H     2.914000000    -1.051000000     1.374000000
O    -1.233000000     5.009000000     0.714000000
H    -0.486000000     5.250000000     1.262000000
H    -0.853000000     4.832000000    -0.146000000
O     3.269000000     1.378000000    -1.816000000
H     3.039000000     0.885000000    -1.028000000
H     2.502000000     1.294000000    -2.383000000
O    -2.979000000    -0.969000000     3.101000000
H    -3.886000000    -1.105000000     2.829000000
H    -2.726000000    -0.143000000     2.689000000
O     3.112000000     3.195000000     1.609000000
H     3.122000000     4.025000000     2.086000000
H     3.091000000     3.449000000     0.687000000
