158
-3033.32282
C    -1.037000000    -0.362000000    -0.966000000
H    -1.648000000    -0.704000000    -1.797000000
C    -0.020000000    -1.143000000    -0.496000000
H     0.078000000    -2.188000000    -0.778000000
C     0.880000000    -0.681000000     0.447000000
H     1.546000000    -1.432000000     0.882000000
C     0.818000000     0.618000000     0.937000000
H     1.564000000     0.912000000     1.671000000
C    -0.134000000     1.506000000     0.375000000
H    -0.221000000     2.469000000     0.872000000
C    -1.160000000     0.947000000    -0.483000000
C    -2.286000000     1.807000000    -1.054000000
O    -3.102000000     1.327000000    -1.803000000
O    -2.251000000     2.997000000    -0.815000000
O    -0.899000000    -3.858000000     2.454000000
H    -1.601000000    -3.352000000     2.045000000
H    -0.680000000    -4.530000000     1.807000000
O    -2.097000000     4.553000000    -2.785000000
H    -2.305000000     5.464000000    -2.574000000
H    -2.128000000     4.099000000    -1.943000000
O     4.013000000    -1.050000000    -1.024000000
H     4.383000000    -1.924000000    -1.147000000
H     4.023000000    -0.917000000    -0.076000000
O     5.706000000     0.790000000     0.376000000
H     5.417000000     1.170000000     1.206000000
H     5.873000000    -0.130000000     0.580000000
O     2.444000000     4.100000000     0.824000000
H     2.013000000     3.977000000    -0.022000000
H     1.759000000     4.453000000     1.392000000
O    -1.274000000    -4.634000000    -4.415000000
H    -2.040000000    -4.230000000    -4.009000000
H    -1.409000000    -5.575000000    -4.299000000
O     3.581000000    -0.626000000     2.631000000
H     2.640000000    -0.567000000     2.796000000
H     3.881000000     0.283000000     2.635000000
O     1.547000000    -6.899000000     3.380000000
H     0.821000000    -6.772000000     2.769000000
H     1.609000000    -6.069000000     3.854000000
O     5.816000000    -2.019000000     1.242000000
H     4.947000000    -1.787000000     1.569000000
H     6.347000000    -2.130000000     2.031000000
O     1.608000000     0.318000000    -3.867000000
H     1.731000000     1.267000000    -3.828000000
H     0.712000000     0.206000000    -4.184000000
O    -4.824000000     1.599000000    -4.178000000
H    -4.664000000     1.785000000    -3.253000000
H    -4.342000000     2.281000000    -4.646000000
O     2.737000000    -5.640000000    -1.651000000
H     2.474000000    -5.496000000    -2.560000000
H     3.597000000    -5.225000000    -1.582000000
O    -2.147000000     0.272000000     3.132000000
H    -2.996000000     0.036000000     2.758000000
H    -1.914000000     1.093000000     2.700000000
O    -1.209000000     1.167000000    -4.167000000
H    -1.849000000     0.853000000    -3.528000000
H    -1.254000000     2.121000000    -4.101000000
O     2.720000000     1.838000000     3.954000000
H     2.609000000     1.133000000     4.591000000
H     1.890000000     2.314000000     3.976000000
O     2.449000000    -1.912000000    -3.008000000
H     2.812000000    -1.504000000    -2.222000000
H     2.026000000    -1.192000000    -3.478000000
O    -1.060000000    -1.580000000    -5.182000000
H    -1.116000000    -2.353000000    -4.620000000
H    -1.889000000    -1.122000000    -5.042000000
O    -5.738000000    -3.150000000    -1.166000000
H    -6.462000000    -3.310000000    -1.771000000
H    -5.258000000    -2.419000000    -1.555000000
O     1.585000000    -4.831000000    -3.976000000
H     0.754000000    -4.896000000    -4.447000000
H     1.812000000    -3.902000000    -4.019000000
O    -3.794000000    -0.611000000    -5.120000000
H    -4.201000000     0.057000000    -4.569000000
H    -4.531000000    -1.079000000    -5.513000000
O    -0.081000000     6.900000000    -0.801000000
H    -0.707000000     6.856000000    -1.523000000
H     0.641000000     6.335000000    -1.075000000
O    -3.839000000     0.189000000     1.010000000
H    -3.819000000     0.036000000     0.066000000
H    -4.338000000     1.000000000     1.110000000
O    -2.417000000    -4.153000000    -1.507000000
H    -3.137000000    -3.732000000    -1.977000000
H    -2.319000000    -5.005000000    -1.933000000
O     1.522000000    -3.964000000     5.122000000
H     1.398000000    -3.150000000     5.609000000
H     1.958000000    -4.550000000     5.741000000
O    -2.938000000    -2.948000000     0.929000000
H    -2.531000000    -3.406000000     0.194000000
H    -3.045000000    -2.048000000     0.621000000
O    -4.531000000     2.745000000     0.391000000
H    -4.886000000     3.567000000     0.051000000
H    -3.663000000     2.677000000    -0.006000000
O     4.152000000    -3.186000000     4.867000000
H     4.354000000    -2.353000000     4.439000000
H     3.196000000    -3.199000000     4.924000000
O    -3.250000000     3.521000000    -5.072000000
H    -2.990000000     4.066000000    -4.329000000
H    -2.963000000     4.012000000    -5.841000000
O     6.249000000    -2.779000000    -1.364000000
H     7.071000000    -2.330000000    -1.559000000
H     6.217000000    -2.817000000    -0.408000000
O    -0.134000000     3.975000000     4.719000000
H    -1.052000000     4.159000000     4.915000000
H     0.222000000     3.628000000     5.537000000
O     5.473000000     0.831000000    -3.156000000
H     4.837000000     1.531000000    -3.303000000
H     5.086000000     0.297000000    -2.462000000
O     1.275000000     3.153000000    -3.721000000
H     0.801000000     3.219000000    -4.550000000
H     0.682000000     3.536000000    -3.075000000
O    -0.574000000     4.690000000    -5.121000000
H    -1.151000000     5.203000000    -5.687000000
H    -0.920000000     4.828000000    -4.239000000
O     4.423000000     3.994000000    -1.195000000
H     4.737000000     3.969000000    -0.291000000
H     3.854000000     3.228000000    -1.273000000
O     0.371000000     4.893000000     2.288000000
H    -0.526000000     4.832000000     1.960000000
H     0.318000000     4.581000000     3.192000000
O     0.491000000    -0.916000000     3.540000000
H     0.344000000    -0.828000000     2.598000000
H    -0.387000000    -0.899000000     3.922000000
O    -5.175000000    -0.406000000    -1.512000000
H    -4.460000000     0.163000000    -1.798000000
H    -5.954000000     0.148000000    -1.558000000
O     0.387000000    -4.824000000    -0.371000000
H    -0.092000000    -4.447000000    -1.109000000
H     1.267000000    -4.983000000    -0.713000000
O    -3.619000000    -3.260000000    -3.849000000
H    -3.573000000    -2.409000000    -4.284000000
H    -4.300000000    -3.736000000    -4.325000000
O     4.373000000    -4.727000000     2.533000000
H     4.485000000    -4.365000000     3.412000000
H     3.505000000    -4.429000000     2.260000000
O     4.975000000    -2.889000000    -3.626000000
H     4.200000000    -2.328000000    -3.595000000
H     5.396000000    -2.763000000    -2.776000000
O     1.805000000    -3.797000000     2.067000000
H     1.365000000    -3.821000000     2.917000000
H     1.093000000    -3.827000000     1.428000000
O     2.814000000     1.618000000    -1.230000000
H     2.245000000     1.241000000    -0.560000000
H     3.175000000     0.861000000    -1.692000000
O    -2.277000000     4.799000000     1.006000000
H    -2.258000000     4.190000000     0.268000000
H    -2.199000000     5.665000000     0.605000000
O     5.388000000    -5.363000000    -0.676000000
H     6.326000000    -5.379000000    -0.868000000
H     5.338000000    -5.121000000     0.249000000
O     3.558000000     0.006000000     5.871000000
H     4.100000000    -0.306000000     5.146000000
H     4.161000000     0.502000000     6.424000000
O    -0.609000000    -6.636000000     1.576000000
H    -1.551000000    -6.794000000     1.506000000
H    -0.342000000    -6.383000000     0.692000000
O     4.586000000     2.445000000     2.351000000
H     3.709000000     2.583000000     2.709000000
H     4.785000000     3.258000000     1.886000000
