158
-3030.03380
C    -0.674000000    -1.129000000    -0.774000000
H    -1.109000000    -2.014000000    -1.231000000
C     0.613000000    -1.151000000    -0.102000000
H     1.141000000    -2.100000000    -0.072000000
C     1.097000000    -0.026000000     0.596000000
H     2.049000000    -0.024000000     1.095000000
C     0.311000000     1.101000000     0.636000000
H     0.673000000     1.905000000     1.272000000
C    -0.878000000     1.137000000    -0.059000000
H    -1.545000000     1.996000000    -0.039000000
C    -1.355000000     0.078000000    -0.835000000
C    -2.628000000     0.186000000    -1.584000000
O    -2.993000000    -0.737000000    -2.245000000
O    -3.158000000     1.269000000    -1.656000000
O    -3.571000000    -2.958000000     3.280000000
H    -3.673000000    -2.562000000     2.414000000
H    -3.869000000    -2.282000000     3.888000000
O    -2.257000000     6.751000000    -2.124000000
H    -1.914000000     5.859000000    -2.078000000
H    -3.208000000     6.644000000    -2.086000000
O    -1.844000000     4.021000000    -2.416000000
H    -1.856000000     4.227000000    -3.350000000
H    -2.573000000     3.412000000    -2.296000000
O     1.265000000     1.591000000    -2.696000000
H     0.400000000     1.835000000    -3.025000000
H     1.221000000     0.641000000    -2.585000000
O     4.107000000     1.281000000     1.186000000
H     3.485000000     1.283000000     0.458000000
H     3.782000000     1.957000000     1.780000000
O     1.135000000     5.480000000     3.345000000
H     0.199000000     5.663000000     3.262000000
H     1.258000000     5.278000000     4.273000000
O    -5.426000000     3.196000000    -5.146000000
H    -4.725000000     3.665000000    -4.693000000
H    -4.975000000     2.515000000    -5.646000000
O    -6.412000000    -1.073000000    -6.425000000
H    -6.123000000    -1.033000000    -5.513000000
H    -7.139000000    -0.452000000    -6.473000000
O     0.589000000    -4.128000000    -4.077000000
H     0.708000000    -4.905000000    -4.622000000
H     0.112000000    -4.445000000    -3.309000000
O     3.385000000    -2.697000000     1.291000000
H     3.044000000    -2.259000000     2.071000000
H     4.197000000    -2.233000000     1.091000000
O    -4.008000000     0.291000000    -4.849000000
H    -3.180000000    -0.126000000    -5.088000000
H    -4.176000000    -0.006000000    -3.955000000
O     4.175000000    -2.293000000    -2.372000000
H     4.188000000    -1.754000000    -3.163000000
H     4.999000000    -2.090000000    -1.930000000
O    -3.360000000     1.017000000     2.430000000
H    -2.584000000     0.901000000     2.978000000
H    -3.455000000     1.966000000     2.346000000
O    -1.950000000    -1.561000000    -4.670000000
H    -2.287000000    -1.275000000    -3.821000000
H    -0.999000000    -1.486000000    -4.588000000
O    -1.084000000     0.791000000     3.769000000
H    -0.666000000     0.208000000     3.135000000
H    -0.447000000     0.866000000     4.480000000
O     4.205000000     2.001000000    -2.210000000
H     3.558000000     1.636000000    -2.814000000
H     3.739000000     2.702000000    -1.754000000
O     1.147000000     0.026000000     6.909000000
H     0.459000000     0.639000000     7.167000000
H     1.944000000     0.380000000     7.303000000
O     2.516000000     3.482000000     2.067000000
H     2.033000000     4.072000000     2.644000000
H     2.167000000     3.662000000     1.194000000
O     4.410000000    -5.023000000    -3.290000000
H     4.004000000    -5.846000000    -3.020000000
H     4.150000000    -4.395000000    -2.616000000
O    -6.777000000    -0.743000000    -3.597000000
H    -6.515000000     0.106000000    -3.242000000
H    -7.599000000    -0.946000000    -3.151000000
O    -4.037000000    -1.501000000     1.091000000
H    -4.121000000    -0.580000000     1.338000000
H    -3.710000000    -1.479000000     0.192000000
O    -2.644000000    -3.142000000    -6.884000000
H    -2.399000000    -2.592000000    -6.140000000
H    -2.088000000    -3.916000000    -6.803000000
O     2.547000000     4.893000000    -0.327000000
H     2.172000000     4.953000000    -1.205000000
H     3.492000000     4.856000000    -0.472000000
O    -5.692000000    -4.003000000    -0.102000000
H    -5.799000000    -4.154000000    -1.041000000
H    -4.974000000    -3.373000000    -0.041000000
O    -3.356000000    -4.892000000    -2.109000000
H    -4.093000000    -5.395000000    -2.457000000
H    -3.649000000    -3.982000000    -2.145000000
O     2.633000000    -4.144000000     4.212000000
H     2.176000000    -3.754000000     3.467000000
H     2.175000000    -3.803000000     4.980000000
O    -2.791000000    -5.768000000     0.707000000
H    -3.538000000    -6.174000000     1.147000000
H    -3.172000000    -5.318000000    -0.046000000
O    -6.004000000     1.525000000    -2.287000000
H    -6.152000000     2.470000000    -2.255000000
H    -5.065000000     1.424000000    -2.126000000
O     6.724000000    -3.513000000     0.857000000
H     6.723000000    -3.795000000    -0.058000000
H     7.174000000    -2.668000000     0.846000000
O     6.598000000     0.644000000    -3.100000000
H     6.055000000     1.150000000    -2.496000000
H     6.370000000     0.981000000    -3.967000000
O    -2.807000000     4.204000000    -5.151000000
H    -2.349000000     4.163000000    -5.991000000
H    -3.073000000     5.120000000    -5.068000000
O     1.269000000    -2.702000000     6.509000000
H     2.209000000    -2.829000000     6.639000000
H     1.160000000    -1.752000000     6.463000000
O    -1.449000000     1.840000000    -4.561000000
H    -2.010000000     2.547000000    -4.879000000
H    -2.012000000     1.329000000    -3.980000000
O    -1.392000000    -4.306000000     2.645000000
H    -2.249000000    -3.959000000     2.893000000
H    -1.583000000    -4.963000000     1.976000000
O     6.355000000     3.456000000     1.010000000
H     5.928000000     2.616000000     0.842000000
H     5.842000000     4.090000000     0.507000000
O    -4.935000000    -2.355000000    -2.102000000
H    -5.693000000    -1.966000000    -2.539000000
H    -4.223000000    -1.734000000    -2.259000000
O    -1.026000000     4.804000000     0.493000000
H    -0.138000000     4.918000000     0.154000000
H    -1.545000000     4.561000000    -0.273000000
O     1.988000000     6.913000000     1.208000000
H     1.852000000     6.453000000     2.036000000
H     2.155000000     6.218000000     0.572000000
O    -2.840000000     3.776000000     2.511000000
H    -3.184000000     4.588000000     2.138000000
H    -2.039000000     3.607000000     2.015000000
O    -0.906000000    -5.725000000    -1.948000000
H    -1.837000000    -5.525000000    -1.849000000
H    -0.545000000    -5.632000000    -1.066000000
O     0.529000000    -5.535000000     0.348000000
H     1.283000000    -6.104000000     0.500000000
H     0.558000000    -4.903000000     1.066000000
O     1.493000000    -1.495000000    -3.528000000
H     2.238000000    -1.561000000    -2.931000000
H     1.198000000    -2.398000000    -3.643000000
O     4.337000000    -5.167000000     0.115000000
H     3.938000000    -4.529000000     0.706000000
H     5.095000000    -5.497000000     0.596000000
O     0.915000000    -2.915000000     2.538000000
H     0.025000000    -3.269000000     2.556000000
H     0.882000000    -2.219000000     1.883000000
O    -1.873000000     6.592000000     2.375000000
H    -1.891000000     6.203000000     1.501000000
H    -1.924000000     7.535000000     2.219000000
O     1.085000000     4.804000000    -2.727000000
H     0.927000000     5.175000000    -3.595000000
H     0.247000000     4.416000000    -2.476000000
O    -4.032000000     3.186000000    -0.184000000
H    -4.549000000     2.669000000     0.434000000
H    -3.584000000     2.537000000    -0.725000000
O     4.305000000     3.593000000     4.251000000
H     3.861000000     3.326000000     3.446000000
H     3.620000000     3.579000000     4.918000000
