158
-3043.14492
C    -0.514000000    -0.640000000    -1.166000000
H    -0.734000000    -1.259000000    -2.032000000
C     0.231000000    -1.251000000    -0.218000000
H     0.639000000    -2.243000000    -0.393000000
C     0.715000000    -0.520000000     0.855000000
H     1.501000000    -0.981000000     1.534000000
C     0.428000000     0.848000000     0.928000000
H     0.916000000     1.387000000     1.736000000
C    -0.521000000     1.452000000     0.117000000
H    -0.832000000     2.491000000     0.189000000
C    -0.944000000     0.690000000    -1.015000000
C    -1.916000000     1.269000000    -2.072000000
O    -2.382000000     0.470000000    -2.910000000
O    -2.343000000     2.389000000    -2.013000000
O    -6.177000000    -0.648000000    -5.919000000
H    -5.814000000     0.056000000    -6.456000000
H    -5.429000000    -0.981000000    -5.424000000
O    -4.031000000     3.660000000    -0.691000000
H    -3.490000000     3.196000000    -1.330000000
H    -4.567000000     4.253000000    -1.217000000
O     2.696000000     4.306000000    -0.270000000
H     1.905000000     4.715000000    -0.623000000
H     2.592000000     4.364000000     0.680000000
O    -7.057000000     1.246000000    -3.621000000
H    -6.915000000     0.775000000    -4.442000000
H    -6.182000000     1.340000000    -3.244000000
O     2.665000000    -1.841000000     7.033000000
H     2.198000000    -1.377000000     6.339000000
H     2.221000000    -1.576000000     7.839000000
O     5.538000000    -0.955000000     4.581000000
H     6.165000000    -0.890000000     3.860000000
H     5.979000000    -0.534000000     5.320000000
O    -4.168000000     5.653000000     2.170000000
H    -3.523000000     5.275000000     1.573000000
H    -4.441000000     4.922000000     2.724000000
O     4.259000000    -3.236000000     5.481000000
H     3.784000000    -2.851000000     6.217000000
H     4.628000000    -2.486000000     5.015000000
O    -0.359000000    -4.329000000     1.623000000
H    -0.557000000    -3.913000000     2.462000000
H     0.507000000    -3.995000000     1.388000000
O     2.370000000    -1.500000000    -3.290000000
H     1.708000000    -2.063000000    -3.691000000
H     2.892000000    -2.092000000    -2.749000000
O     1.317000000     2.704000000    -4.606000000
H     0.407000000     2.953000000    -4.447000000
H     1.624000000     2.365000000    -3.765000000
O    -4.057000000     1.607000000    -4.698000000
H    -3.902000000     1.061000000    -3.927000000
H    -3.487000000     2.366000000    -4.573000000
O    -0.306000000    -6.439000000    -0.488000000
H    -0.396000000    -5.950000000     0.330000000
H    -1.051000000    -6.156000000    -1.019000000
O    -0.824000000    -0.718000000    -4.960000000
H    -1.393000000    -0.416000000    -5.668000000
H    -1.187000000    -0.313000000    -4.172000000
O     5.837000000     1.052000000     1.666000000
H     5.372000000     1.349000000     2.449000000
H     6.707000000     0.810000000     1.983000000
O    -0.913000000     6.459000000     2.488000000
H    -1.363000000     5.766000000     2.006000000
H    -1.603000000     6.878000000     3.004000000
O     3.731000000    -3.209000000    -1.000000000
H     3.442000000    -3.188000000    -0.088000000
H     4.685000000    -3.272000000    -0.947000000
O     2.777000000    -5.013000000     4.062000000
H     3.496000000    -5.626000000     3.910000000
H     3.141000000    -4.361000000     4.661000000
O     0.712000000    -3.079000000    -4.618000000
H     0.237000000    -2.281000000    -4.852000000
H     0.106000000    -3.789000000    -4.828000000
O     0.984000000     2.416000000     5.968000000
H     1.346000000     3.138000000     5.455000000
H     0.285000000     2.816000000     6.486000000
O    -6.350000000    -1.318000000    -1.570000000
H    -7.263000000    -1.363000000    -1.854000000
H    -6.100000000    -0.404000000    -1.711000000
O    -3.486000000    -3.939000000    -4.725000000
H    -3.823000000    -4.452000000    -5.460000000
H    -3.642000000    -3.029000000    -4.977000000
O     4.765000000     4.056000000     3.012000000
H     4.462000000     4.229000000     2.120000000
H     4.272000000     3.283000000     3.286000000
O    -4.282000000    -1.441000000    -4.015000000
H    -3.581000000    -0.906000000    -3.643000000
H    -4.730000000    -1.811000000    -3.254000000
O    -1.997000000     4.848000000     0.590000000
H    -1.598000000     5.433000000    -0.054000000
H    -2.561000000     4.272000000     0.074000000
O    -2.813000000    -0.990000000     2.759000000
H    -3.405000000    -1.178000000     2.031000000
H    -3.344000000    -1.132000000     3.542000000
O    -2.367000000    -5.242000000    -2.738000000
H    -2.722000000    -4.731000000    -3.465000000
H    -2.288000000    -4.613000000    -2.020000000
O    -0.502000000    -0.110000000     7.622000000
H    -0.191000000    -0.296000000     6.736000000
H     0.290000000    -0.112000000     8.159000000
O    -0.895000000    -2.508000000     3.791000000
H    -1.520000000    -1.937000000     3.344000000
H    -1.431000000    -3.210000000     4.158000000
O    -5.098000000     5.326000000    -2.552000000
H    -4.581000000     5.889000000    -3.128000000
H    -5.563000000     4.737000000    -3.147000000
O    -4.941000000     1.184000000    -1.891000000
H    -4.045000000     0.902000000    -2.074000000
H    -4.840000000     1.952000000    -1.328000000
O    -3.167000000     4.587000000    -5.379000000
H    -3.314000000     5.524000000    -5.246000000
H    -3.147000000     4.480000000    -6.330000000
O     2.403000000     1.158000000    -2.673000000
H     2.576000000     1.066000000    -1.736000000
H     2.263000000     0.263000000    -2.980000000
O    -4.296000000    -2.065000000     0.634000000
H    -4.598000000    -1.664000000    -0.181000000
H    -5.020000000    -2.631000000     0.904000000
O     0.384000000     4.917000000    -1.325000000
H    -0.044000000     5.770000000    -1.254000000
H    -0.102000000     4.462000000    -2.013000000
O    -3.138000000    -0.031000000    -6.596000000
H    -3.474000000     0.351000000    -7.406000000
H    -3.601000000     0.436000000    -5.900000000
O     0.600000000    -0.660000000     5.094000000
H     0.022000000    -1.253000000     4.614000000
H     0.282000000     0.215000000     4.871000000
O    -2.154000000    -3.980000000    -0.199000000
H    -2.610000000    -3.158000000    -0.018000000
H    -1.516000000    -4.061000000     0.511000000
O     3.739000000     1.110000000     3.879000000
H     2.910000000     1.157000000     4.356000000
H     4.191000000     0.357000000     4.259000000
O    -1.073000000     3.956000000    -3.614000000
H    -1.482000000     3.315000000    -3.033000000
H    -1.683000000     4.037000000    -4.348000000
O    -1.059000000     1.291000000     4.034000000
H    -1.508000000     0.736000000     3.396000000
H    -1.665000000     2.015000000     4.191000000
O     3.743000000    -5.614000000    -2.149000000
H     3.569000000    -4.789000000    -1.696000000
H     4.539000000    -5.950000000    -1.737000000
O     2.247000000    -4.062000000     1.372000000
H     2.246000000    -4.976000000     1.086000000
H     2.481000000    -4.101000000     2.299000000
O     1.443000000     4.231000000     2.239000000
H     0.575000000     3.876000000     2.048000000
H     1.466000000     4.305000000     3.193000000
O     3.694000000     0.537000000    -0.021000000
H     4.555000000     0.581000000     0.396000000
H     3.081000000     0.427000000     0.706000000
O    -3.780000000     1.350000000     0.779000000
H    -2.992000000     0.874000000     1.041000000
H    -3.497000000     2.262000000     0.711000000
O     5.358000000     3.071000000    -0.471000000
H     5.417000000     2.370000000     0.178000000
H     4.421000000     3.250000000    -0.545000000
O     1.174000000     0.636000000    -6.530000000
H     0.778000000    -0.078000000    -6.030000000
H     1.128000000     1.392000000    -5.945000000
