158
-3026.87397
C    -0.951000000    -0.776000000    -0.853000000
H    -1.649000000    -1.481000000    -1.298000000
C    -0.038000000    -1.309000000     0.026000000
H     0.043000000    -2.369000000     0.251000000
C     0.757000000    -0.462000000     0.860000000
H     1.402000000    -0.870000000     1.567000000
C     0.716000000     0.905000000     0.659000000
H     1.254000000     1.560000000     1.340000000
C    -0.034000000     1.446000000    -0.427000000
H    -0.090000000     2.496000000    -0.702000000
C    -0.864000000     0.615000000    -1.203000000
C    -1.854000000     1.261000000    -2.113000000
O    -2.608000000     0.568000000    -2.762000000
O    -1.841000000     2.470000000    -2.287000000
O    -0.714000000    -3.781000000     2.812000000
H    -1.514000000    -3.429000000     2.422000000
H    -0.424000000    -4.455000000     2.197000000
O    -5.155000000     0.336000000    -7.018000000
H    -4.482000000     0.767000000    -7.545000000
H    -4.694000000     0.045000000    -6.231000000
O    -1.580000000     4.902000000    -0.935000000
H    -1.957000000     5.447000000    -1.626000000
H    -1.653000000     4.008000000    -1.268000000
O     7.118000000    -0.802000000     0.730000000
H     6.660000000    -1.011000000     1.544000000
H     7.833000000    -0.225000000     0.999000000
O     2.748000000     5.027000000     0.627000000
H     2.177000000     5.171000000    -0.127000000
H     2.617000000     5.798000000     1.178000000
O    -2.212000000     0.877000000     5.448000000
H    -1.801000000     0.459000000     4.691000000
H    -2.811000000     1.521000000     5.070000000
O    -6.384000000     4.170000000    -4.153000000
H    -6.039000000     5.001000000    -4.479000000
H    -5.638000000     3.571000000    -4.185000000
O     0.378000000    -1.430000000     7.039000000
H     0.454000000    -1.374000000     6.086000000
H     0.746000000    -0.605000000     7.358000000
O     1.809000000    -6.034000000     3.419000000
H     2.102000000    -5.978000000     4.328000000
H     1.157000000    -6.735000000     3.420000000
O     4.308000000    -0.370000000     5.564000000
H     3.446000000     0.042000000     5.503000000
H     4.742000000     0.089000000     6.283000000
O     1.858000000    -0.490000000    -2.245000000
H     1.312000000    -1.005000000    -2.839000000
H     1.508000000    -0.677000000    -1.374000000
O    -5.032000000     6.282000000    -0.401000000
H    -4.384000000     5.912000000    -1.000000000
H    -5.578000000     6.841000000    -0.954000000
O     0.707000000     1.442000000    -5.172000000
H     0.122000000     2.155000000    -4.914000000
H     1.519000000     1.614000000    -4.696000000
O    -4.393000000     2.549000000    -3.929000000
H    -3.957000000     2.053000000    -3.237000000
H    -3.752000000     2.587000000    -4.639000000
O     1.318000000    -4.714000000    -0.626000000
H     1.107000000    -4.349000000    -1.485000000
H     1.881000000    -4.056000000    -0.218000000
O    -1.140000000     0.100000000     2.925000000
H    -1.833000000     0.707000000     2.664000000
H    -1.139000000    -0.571000000     2.242000000
O    -0.788000000     3.626000000    -4.463000000
H    -1.497000000     3.834000000    -5.072000000
H    -1.224000000     3.205000000    -3.722000000
O     3.647000000     1.877000000     3.067000000
H     3.115000000     1.744000000     3.852000000
H     4.182000000     1.086000000     3.003000000
O     3.154000000    -2.794000000     0.125000000
H     3.118000000    -2.662000000     1.073000000
H     3.576000000    -2.003000000    -0.210000000
O    -0.857000000    -4.730000000     6.061000000
H    -0.691000000    -4.562000000     5.134000000
H    -1.637000000    -5.285000000     6.069000000
O    -0.792000000    -0.842000000    -4.283000000
H    -0.293000000    -0.106000000    -4.636000000
H    -1.707000000    -0.593000000    -4.407000000
O    -4.125000000    -2.926000000    -2.327000000
H    -4.363000000    -2.751000000    -3.238000000
H    -4.510000000    -2.201000000    -1.835000000
O     0.634000000    -3.278000000    -4.714000000
H     0.109000000    -3.668000000    -5.413000000
H     0.262000000    -2.405000000    -4.593000000
O    -3.725000000    -0.696000000    -4.930000000
H    -3.531000000    -0.177000000    -4.150000000
H    -4.408000000    -1.305000000    -4.649000000
O    -3.651000000     0.331000000     1.579000000
H    -4.167000000    -0.092000000     0.893000000
H    -4.149000000     1.117000000     1.803000000
O    -1.815000000    -3.915000000    -1.243000000
H    -2.665000000    -3.782000000    -1.661000000
H    -1.848000000    -3.371000000    -0.456000000
O     3.405000000    -3.133000000     5.865000000
H     3.284000000    -2.184000000     5.894000000
H     4.119000000    -3.303000000     6.479000000
O    -2.951000000    -2.386000000     1.455000000
H    -2.823000000    -1.448000000     1.595000000
H    -3.885000000    -2.475000000     1.264000000
O    -5.291000000     3.034000000    -1.155000000
H    -4.706000000     2.328000000    -0.880000000
H    -5.071000000     3.183000000    -2.075000000
O     6.005000000    -0.563000000     3.618000000
H     6.398000000     0.300000000     3.743000000
H     5.443000000    -0.684000000     4.384000000
O    -2.801000000     4.307000000    -5.981000000
H    -2.533000000     5.224000000    -6.037000000
H    -3.593000000     4.256000000    -6.515000000
O     0.319000000     3.010000000     5.521000000
H    -0.632000000     3.119000000     5.539000000
H     0.584000000     3.062000000     6.439000000
O     2.643000000     2.177000000    -3.550000000
H     2.409000000     1.304000000    -3.234000000
H     3.429000000     2.409000000    -3.054000000
O     1.194000000     5.721000000    -1.507000000
H     0.243000000     5.629000000    -1.563000000
H     1.521000000     5.336000000    -2.320000000
O     2.147000000     4.880000000    -4.025000000
H     2.407000000     3.961000000    -4.087000000
H     1.339000000     4.936000000    -4.536000000
O     0.411000000     5.272000000     3.813000000
H     0.013000000     5.717000000     4.562000000
H     0.498000000     4.362000000     4.094000000
O     0.477000000    -1.257000000     4.458000000
H     0.342000000    -2.182000000     4.252000000
H    -0.046000000    -0.788000000     3.807000000
O    -4.923000000    -0.320000000    -1.333000000
H    -4.154000000     0.022000000    -1.790000000
H    -5.666000000     0.090000000    -1.776000000
O     1.943000000     0.927000000     5.074000000
H     1.252000000     1.581000000     5.177000000
H     1.479000000     0.120000000     4.850000000
O    -3.088000000     5.737000000    -3.115000000
H    -2.813000000     4.947000000    -3.580000000
H    -3.869000000     6.032000000    -3.584000000
O    -1.298000000    -6.136000000    -2.615000000
H    -1.402000000    -5.208000000    -2.404000000
H    -2.076000000    -6.554000000    -2.246000000
O    -0.457000000    -6.037000000     0.844000000
H    -1.225000000    -6.288000000     0.330000000
H     0.116000000    -5.596000000     0.217000000
O     5.750000000    -3.827000000     2.915000000
H     4.850000000    -3.518000000     2.812000000
H     5.669000000    -4.641000000     3.412000000
O     4.807000000    -4.769000000    -0.244000000
H     4.186000000    -4.044000000    -0.173000000
H     5.662000000    -4.346000000    -0.318000000
O     3.113000000    -3.292000000     3.051000000
H     3.161000000    -3.287000000     4.007000000
H     2.357000000    -3.845000000     2.853000000
O     4.550000000    -0.551000000    -0.410000000
H     4.217000000     0.233000000     0.025000000
H     5.474000000    -0.589000000    -0.161000000
O    -1.681000000     5.500000000     1.903000000
H    -1.545000000     4.995000000     1.102000000
H    -0.889000000     5.349000000     2.419000000
O     3.613000000     2.099000000     0.331000000
H     3.508000000     1.987000000     1.276000000
H     3.176000000     2.928000000     0.138000000
