158
-3039.95933
C    -0.624000000     0.246000000    -1.330000000
H    -1.147000000     0.391000000    -2.271000000
C    -1.157000000    -0.527000000    -0.327000000
H    -2.045000000    -1.131000000    -0.496000000
C    -0.509000000    -0.645000000     0.912000000
H    -1.013000000    -1.114000000     1.664000000
C     0.675000000     0.039000000     1.132000000
H     1.287000000    -0.175000000     2.004000000
C     1.192000000     0.712000000     0.091000000
H     2.156000000     1.189000000     0.247000000
C     0.623000000     0.888000000    -1.119000000
C     1.288000000     1.589000000    -2.245000000
O     0.917000000     1.314000000    -3.361000000
O     2.246000000     2.313000000    -2.110000000
O    -4.843000000    -2.713000000     1.528000000
H    -4.030000000    -2.976000000     1.960000000
H    -5.133000000    -3.499000000     1.064000000
O     1.654000000     3.803000000     1.832000000
H     1.205000000     4.381000000     2.449000000
H     1.260000000     4.004000000     0.984000000
O    -0.014000000    -4.483000000     0.743000000
H     0.473000000    -5.272000000     0.979000000
H     0.620000000    -3.773000000     0.838000000
O    -1.565000000     1.371000000    -4.532000000
H    -0.645000000     1.465000000    -4.282000000
H    -1.567000000     1.472000000    -5.483000000
O     1.187000000    -1.029000000     6.203000000
H     1.334000000    -1.235000000     5.279000000
H     0.433000000    -0.439000000     6.200000000
O     1.724000000     6.939000000     0.189000000
H     1.866000000     6.159000000    -0.346000000
H     0.775000000     7.064000000     0.183000000
O     3.745000000     1.284000000    -7.596000000
H     3.235000000     1.967000000    -7.161000000
H     4.545000000     1.214000000    -7.076000000
O     0.928000000     4.256000000    -0.783000000
H     1.339000000     3.752000000    -1.485000000
H    -0.009000000     4.212000000    -0.973000000
O    -2.713000000    -2.214000000    -3.199000000
H    -1.865000000    -1.774000000    -3.255000000
H    -2.549000000    -2.982000000    -2.651000000
O    -0.294000000    -0.669000000    -7.209000000
H     0.614000000    -0.485000000    -7.451000000
H    -0.265000000    -0.815000000    -6.264000000
O    -5.111000000    -1.000000000    -2.507000000
H    -4.363000000    -1.484000000    -2.855000000
H    -4.898000000    -0.081000000    -2.671000000
O     6.506000000     4.024000000    -1.458000000
H     5.825000000     3.358000000    -1.361000000
H     6.026000000     4.851000000    -1.499000000
O    -0.942000000     3.014000000    -6.511000000
H    -1.076000000     3.841000000    -6.049000000
H    -0.844000000     3.266000000    -7.429000000
O     1.574000000     3.495000000    -8.170000000
H     1.679000000     3.312000000    -7.237000000
H     2.163000000     4.231000000    -8.337000000
O     2.296000000    -1.601000000     3.851000000
H     3.216000000    -1.800000000     4.025000000
H     2.214000000    -1.662000000     2.899000000
O    -3.969000000     1.250000000    -3.110000000
H    -3.161000000     1.192000000    -3.620000000
H    -4.092000000     2.188000000    -2.962000000
O     2.623000000    -3.463000000     1.727000000
H     3.111000000    -3.188000000     0.952000000
H     3.098000000    -4.228000000     2.051000000
O     2.627000000    -1.104000000    -7.543000000
H     3.186000000    -0.368000000    -7.792000000
H     2.567000000    -1.049000000    -6.590000000
O    -3.842000000     2.658000000    -0.254000000
H    -4.394000000     1.876000000    -0.261000000
H    -4.355000000     3.309000000     0.223000000
O    -1.719000000     4.245000000    -1.208000000
H    -1.954000000     4.668000000    -0.383000000
H    -2.325000000     3.507000000    -1.280000000
O     2.287000000    -2.954000000    -3.984000000
H     2.298000000    -2.955000000    -3.027000000
H     2.194000000    -3.876000000    -4.224000000
O     1.654000000    -4.783000000     4.041000000
H     1.309000000    -3.976000000     3.660000000
H     2.602000000    -4.655000000     4.057000000
O    -1.786000000    -4.421000000     5.231000000
H    -2.430000000    -5.099000000     5.434000000
H    -0.955000000    -4.892000000     5.164000000
O    -5.620000000    -0.470000000     0.214000000
H    -5.535000000    -0.844000000    -0.662000000
H    -5.284000000    -1.149000000     0.799000000
O    -4.039000000     1.783000000     3.457000000
H    -3.338000000     1.661000000     2.817000000
H    -4.826000000     1.916000000     2.929000000
O     2.750000000     2.034000000     3.526000000
H     2.422000000     2.634000000     2.856000000
H     2.983000000     1.241000000     3.043000000
O     2.126000000    -2.221000000    -1.376000000
H     1.355000000    -1.695000000    -1.162000000
H     2.865000000    -1.626000000    -1.247000000
O     4.280000000    -0.914000000    -0.804000000
H     5.095000000    -1.399000000    -0.938000000
H     4.248000000    -0.756000000     0.139000000
O    -5.212000000    -5.437000000     0.717000000
H    -4.280000000    -5.527000000     0.516000000
H    -5.604000000    -6.254000000     0.410000000
O    -1.913000000    -1.740000000     4.467000000
H    -2.865000000    -1.645000000     4.442000000
H    -1.765000000    -2.539000000     4.974000000
O     3.129000000    -0.343000000    -4.591000000
H     3.032000000    -0.997000000    -3.899000000
H     2.647000000     0.419000000    -4.269000000
O    -5.498000000    -0.953000000     3.699000000
H    -5.704000000    -0.131000000     3.254000000
H    -5.300000000    -1.566000000     2.991000000
O     0.125000000     2.654000000     4.929000000
H    -0.181000000     2.118000000     4.197000000
H     1.044000000     2.831000000     4.729000000
O    -1.598000000    -3.234000000    -5.991000000
H    -1.621000000    -3.998000000    -5.415000000
H    -1.514000000    -2.488000000    -5.398000000
O     2.274000000     2.994000000    -5.655000000
H     2.980000000     3.157000000    -5.030000000
H     1.529000000     2.736000000    -5.113000000
O    -4.528000000    -1.967000000    -5.608000000
H    -3.740000000    -2.053000000    -6.144000000
H    -4.199000000    -1.834000000    -4.718000000
O     4.698000000     4.257000000     1.314000000
H     3.763000000     4.284000000     1.517000000
H     4.764000000     3.660000000     0.569000000
O     0.109000000    -1.314000000    -4.513000000
H     0.757000000    -1.959000000    -4.228000000
H     0.318000000    -0.527000000    -4.011000000
O     4.762000000     2.026000000    -0.830000000
H     3.869000000     2.241000000    -1.099000000
H     4.803000000     1.071000000    -0.879000000
O    -1.651000000     2.249000000     1.950000000
H    -1.820000000     3.024000000     1.413000000
H    -1.284000000     1.610000000     1.339000000
O     4.073000000     5.947000000    -1.428000000
H     3.812000000     6.669000000    -1.999000000
H     4.342000000     6.371000000    -0.614000000
O    -0.949000000     4.638000000    -4.047000000
H    -1.188000000     4.751000000    -3.127000000
H    -0.933000000     3.689000000    -4.176000000
O     5.811000000     2.257000000    -4.543000000
H     6.154000000     2.738000000    -5.296000000
H     5.261000000     2.893000000    -4.084000000
O    -2.541000000    -4.437000000     2.028000000
H    -1.627000000    -4.428000000     1.741000000
H    -2.491000000    -4.481000000     2.983000000
O    -3.165000000     2.092000000     6.217000000
H    -4.015000000     2.452000000     6.472000000
H    -3.258000000     1.894000000     5.285000000
O     3.896000000     3.813000000    -3.342000000
H     3.275000000     3.321000000    -2.805000000
H     3.745000000     4.728000000    -3.104000000
O    -1.956000000    -3.752000000    -1.044000000
H    -1.212000000    -3.958000000    -0.477000000
H    -2.579000000    -4.461000000    -0.889000000
O     4.968000000    -0.149000000     1.822000000
H     5.694000000     0.445000000     1.631000000
H     5.327000000    -0.771000000     2.455000000
