158
-3051.63194
C    -0.069000000    -0.113000000    -1.477000000
H    -0.347000000    -0.217000000    -2.522000000
C    -1.125000000    -0.243000000    -0.572000000
H    -2.128000000    -0.362000000    -0.975000000
C    -0.869000000    -0.273000000     0.785000000
H    -1.623000000    -0.608000000     1.440000000
C     0.413000000     0.062000000     1.322000000
H     0.596000000     0.012000000     2.392000000
C     1.381000000     0.401000000     0.345000000
H     2.341000000     0.695000000     0.762000000
C     1.141000000     0.341000000    -1.036000000
C     2.210000000     0.645000000    -1.985000000
O     2.107000000     0.442000000    -3.213000000
O     3.285000000     1.060000000    -1.540000000
O     1.200000000     0.220000000    -6.393000000
H     0.485000000     0.411000000    -5.786000000
H     1.896000000     0.827000000    -6.142000000
O     3.175000000     1.964000000    -5.228000000
H     4.041000000     2.304000000    -5.002000000
H     2.964000000     1.356000000    -4.520000000
O    -4.526000000     0.617000000     2.513000000
H    -5.202000000     1.258000000     2.731000000
H    -4.573000000    -0.030000000     3.217000000
O    -2.676000000    -3.254000000    -0.682000000
H    -1.836000000    -3.007000000    -0.295000000
H    -3.201000000    -3.558000000     0.059000000
O     3.497000000     3.832000000     1.573000000
H     3.585000000     3.250000000     0.819000000
H     2.623000000     3.648000000     1.918000000
O    -4.058000000     1.444000000    -0.132000000
H    -3.850000000     1.232000000     0.778000000
H    -4.730000000     0.808000000    -0.379000000
O     0.160000000    -5.036000000    -0.880000000
H    -0.387000000    -5.046000000    -1.665000000
H    -0.251000000    -4.386000000    -0.310000000
O    -0.566000000     1.051000000    -4.567000000
H     0.092000000     0.774000000    -3.929000000
H    -1.132000000     1.652000000    -4.082000000
O     3.854000000     3.582000000    -1.936000000
H     4.490000000     3.528000000    -2.649000000
H     3.830000000     2.699000000    -1.568000000
O    -0.162000000    -2.099000000    -5.797000000
H     0.334000000    -1.475000000    -6.327000000
H     0.507000000    -2.602000000    -5.331000000
O     0.835000000     2.021000000     6.917000000
H     0.326000000     1.627000000     6.208000000
H     0.255000000     2.686000000     7.288000000
O    -2.407000000    -0.400000000    -6.048000000
H    -1.772000000    -1.115000000    -6.004000000
H    -1.897000000     0.386000000    -5.853000000
O    -6.975000000    -2.655000000     1.564000000
H    -7.456000000    -2.482000000     0.755000000
H    -7.153000000    -1.894000000     2.116000000
O     4.692000000     5.567000000    -0.202000000
H     4.433000000     5.074000000     0.576000000
H     4.079000000     5.282000000    -0.881000000
O    -1.562000000    -5.249000000     3.803000000
H    -2.263000000    -5.694000000     4.280000000
H    -1.889000000    -5.180000000     2.906000000
O     0.803000000     3.881000000    -6.618000000
H     0.843000000     3.405000000    -5.788000000
H     1.715000000     3.947000000    -6.900000000
O    -0.593000000     1.221000000     4.659000000
H    -1.364000000     1.783000000     4.584000000
H    -0.912000000     0.345000000     4.439000000
O    -0.762000000     3.843000000    -3.295000000
H    -1.119000000     4.729000000    -3.339000000
H    -0.083000000     3.891000000    -2.622000000
O    -3.973000000     3.866000000    -1.519000000
H    -4.307000000     2.996000000    -1.301000000
H    -3.027000000     3.746000000    -1.600000000
O     1.047000000     4.057000000    -1.228000000
H     1.087000000     4.597000000    -0.438000000
H     1.626000000     3.318000000    -1.042000000
O     4.091000000    -1.968000000    -0.366000000
H     3.510000000    -2.556000000    -0.847000000
H     4.968000000    -2.188000000    -0.680000000
O     0.833000000    -3.589000000     3.531000000
H     1.092000000    -4.334000000     4.073000000
H     1.546000000    -2.959000000     3.634000000
O    -6.646000000     0.652000000    -1.563000000
H    -6.249000000     0.432000000    -2.407000000
H    -6.836000000    -0.195000000    -1.160000000
O    -2.767000000     2.556000000     3.338000000
H    -2.168000000     3.016000000     2.750000000
H    -3.147000000     1.862000000     2.799000000
O     3.116000000    -0.177000000     4.096000000
H     3.115000000    -0.709000000     3.299000000
H     2.691000000     0.641000000     3.839000000
O     2.519000000    -3.640000000    -1.967000000
H     2.440000000    -3.092000000    -2.748000000
H     1.733000000    -4.186000000    -1.978000000
O    -4.352000000    -1.410000000     4.419000000
H    -3.551000000    -1.275000000     4.925000000
H    -4.832000000    -2.081000000     4.904000000
O    -2.767000000    -3.784000000    -4.034000000
H    -2.072000000    -3.691000000    -3.383000000
H    -3.441000000    -3.164000000    -3.756000000
O    -0.863000000    -1.451000000     4.157000000
H    -0.359000000    -2.188000000     3.810000000
H    -0.742000000    -1.503000000     5.105000000
O     4.895000000    -0.128000000    -3.499000000
H     4.931000000    -1.076000000    -3.373000000
H     4.226000000     0.170000000    -2.882000000
O    -4.199000000    -3.380000000     1.732000000
H    -3.966000000    -2.807000000     2.463000000
H    -5.110000000    -3.162000000     1.537000000
O     1.615000000     2.827000000     3.709000000
H     1.752000000     3.670000000     4.141000000
H     1.033000000     2.348000000     4.298000000
O     2.452000000     4.526000000    -4.230000000
H     2.471000000     4.539000000    -3.273000000
H     2.986000000     3.770000000    -4.470000000
O     7.711000000     3.623000000    -1.810000000
H     8.405000000     3.090000000    -1.422000000
H     6.964000000     3.029000000    -1.880000000
O     2.507000000    -1.272000000     6.496000000
H     2.808000000    -1.175000000     5.592000000
H     2.621000000    -0.403000000     6.881000000
O     2.085000000    -1.992000000    -4.225000000
H     2.669000000    -2.165000000    -4.964000000
H     2.181000000    -1.055000000    -4.058000000
O     5.913000000     1.613000000    -0.820000000
H     5.097000000     1.137000000    -0.975000000
H     6.171000000     1.363000000     0.068000000
O    -2.580000000     0.058000000     7.700000000
H    -3.278000000     0.460000000     8.218000000
H    -2.719000000     0.389000000     6.813000000
O     6.113000000     0.587000000    -6.018000000
H     5.319000000     0.491000000    -5.492000000
H     6.442000000    -0.306000000    -6.120000000
O    -1.386000000     3.034000000     0.697000000
H    -0.771000000     3.609000000     0.241000000
H    -1.241000000     2.172000000     0.307000000
O    -4.208000000    -0.303000000    -3.438000000
H    -3.877000000    -0.566000000    -4.297000000
H    -4.564000000     0.575000000    -3.577000000
O    -0.556000000    -3.299000000     1.024000000
H    -0.170000000    -2.423000000     0.992000000
H    -0.373000000    -3.608000000     1.911000000
O    -3.113000000     2.448000000     6.063000000
H    -4.038000000     2.258000000     6.222000000
H    -3.033000000     2.467000000     5.110000000
O     5.289000000     3.358000000    -4.414000000
H     6.087000000     2.906000000    -4.687000000
H     5.531000000     4.284000000    -4.398000000
O    -3.415000000    -6.064000000     1.482000000
H    -3.583000000    -5.143000000     1.681000000
H    -4.198000000    -6.521000000     1.788000000
O    -4.887000000    -2.865000000    -2.587000000
H    -4.225000000    -2.686000000    -1.920000000
H    -5.087000000    -2.008000000    -2.963000000
O     3.221000000    -2.091000000     2.207000000
H     2.920000000    -2.946000000     1.900000000
H     3.733000000    -1.741000000     1.478000000
O     7.496000000     0.858000000    -2.944000000
H     6.745000000     0.594000000    -3.474000000
H     7.131000000     1.014000000    -2.072000000
