158
-3001.23932
C    -1.089000000     0.644000000    -0.763000000
H    -1.910000000     1.101000000    -1.310000000
C    -1.303000000    -0.457000000     0.094000000
H    -2.309000000    -0.837000000     0.247000000
C    -0.209000000    -0.891000000     0.815000000
H    -0.366000000    -1.701000000     1.518000000
C     1.092000000    -0.344000000     0.700000000
H     1.906000000    -0.601000000     1.372000000
C     1.315000000     0.703000000    -0.192000000
H     2.321000000     1.035000000    -0.436000000
C     0.231000000     1.174000000    -0.964000000
C     0.465000000     2.207000000    -2.092000000
O    -0.355000000     2.293000000    -2.988000000
O     1.608000000     2.683000000    -2.175000000
O    -0.670000000     4.117000000    -6.525000000
H    -0.216000000     4.199000000    -5.686000000
H    -1.464000000     3.622000000    -6.321000000
O     1.659000000    -1.045000000    -5.340000000
H     1.642000000    -1.768000000    -4.713000000
H     2.093000000    -0.332000000    -4.872000000
O     1.479000000     3.753000000    -4.659000000
H     1.942000000     3.077000000    -5.154000000
H     1.325000000     3.359000000    -3.800000000
O    -4.391000000     5.028000000    -1.899000000
H    -4.249000000     4.758000000    -0.992000000
H    -3.517000000     5.021000000    -2.290000000
O    -5.913000000    -2.274000000     0.542000000
H    -6.856000000    -2.361000000     0.402000000
H    -5.832000000    -1.985000000     1.451000000
O     0.806000000     6.482000000    -4.736000000
H     1.142000000     5.588000000    -4.671000000
H     0.055000000     6.500000000    -4.144000000
O     4.529000000     4.464000000    -0.596000000
H     4.794000000     4.009000000    -1.395000000
H     3.629000000     4.743000000    -0.767000000
O    -5.721000000    -0.163000000     3.089000000
H    -6.497000000    -0.676000000     3.316000000
H    -5.458000000     0.250000000     3.912000000
O     3.962000000    -2.592000000    -2.305000000
H     4.234000000    -2.469000000    -1.395000000
H     3.049000000    -2.303000000    -2.323000000
O    -2.240000000     4.045000000    -3.448000000
H    -1.669000000     3.299000000    -3.266000000
H    -2.557000000     3.892000000    -4.338000000
O    -2.782000000    -4.256000000     2.565000000
H    -1.976000000    -4.503000000     2.111000000
H    -2.626000000    -4.500000000     3.478000000
O     4.193000000     6.979000000    -2.841000000
H     4.123000000     7.835000000    -2.420000000
H     3.534000000     6.441000000    -2.401000000
O     5.602000000     2.839000000    -2.349000000
H     6.414000000     2.744000000    -1.850000000
H     5.645000000     2.150000000    -3.011000000
O    -4.770000000     0.752000000    -6.110000000
H    -4.687000000     0.547000000    -5.179000000
H    -3.997000000     0.356000000    -6.512000000
O    -1.025000000    -2.410000000    -2.250000000
H    -0.948000000    -1.561000000    -2.685000000
H    -1.358000000    -2.203000000    -1.377000000
O    -3.031000000    -4.417000000    -2.872000000
H    -2.420000000    -3.681000000    -2.888000000
H    -3.549000000    -4.281000000    -2.078000000
O    -0.214000000    -0.457000000    -7.243000000
H     0.469000000    -0.734000000    -6.632000000
H     0.046000000    -0.839000000    -8.082000000
O    -5.802000000     2.820000000    -2.746000000
H    -5.473000000     3.630000000    -2.355000000
H    -5.353000000     2.123000000    -2.267000000
O    -5.218000000     0.901000000    -0.960000000
H    -5.043000000     1.182000000    -0.062000000
H    -4.859000000     0.015000000    -1.008000000
O     3.817000000    -5.569000000     2.258000000
H     3.536000000    -4.875000000     2.854000000
H     4.767000000    -5.465000000     2.200000000
O    -3.779000000     0.977000000     1.474000000
H    -4.307000000     0.469000000     2.089000000
H    -2.877000000     0.845000000     1.767000000
O     1.747000000    -2.802000000     3.782000000
H     1.184000000    -2.038000000     3.910000000
H     2.361000000    -2.772000000     4.515000000
O     1.652000000     5.591000000     0.962000000
H     0.702000000     5.494000000     0.909000000
H     1.935000000     5.688000000     0.053000000
O     0.008000000    -7.265000000     3.092000000
H     0.690000000    -7.123000000     3.749000000
H    -0.320000000    -6.388000000     2.895000000
O    -2.057000000    -5.592000000     4.930000000
H    -2.657000000    -5.060000000     5.453000000
H    -2.189000000    -6.485000000     5.247000000
O     2.328000000     5.171000000    -1.974000000
H     1.957000000     4.291000000    -1.911000000
H     2.310000000     5.373000000    -2.909000000
O     1.526000000    -5.481000000     4.495000000
H     1.486000000    -5.377000000     5.446000000
H     1.825000000    -4.631000000     4.173000000
O     2.599000000    -1.365000000     6.175000000
H     2.180000000    -1.552000000     7.015000000
H     1.937000000    -0.885000000     5.678000000
O     2.950000000     0.871000000    -3.445000000
H     3.843000000     1.092000000    -3.181000000
H     2.411000000     1.570000000    -3.075000000
O    -2.183000000    -1.605000000     3.609000000
H    -2.857000000    -2.270000000     3.468000000
H    -2.560000000    -1.017000000     4.263000000
O     1.993000000    -5.519000000     0.266000000
H     2.464000000    -5.608000000    -0.562000000
H     2.672000000    -5.308000000     0.906000000
O     4.858000000     3.577000000    -5.556000000
H     4.766000000     4.166000000    -4.808000000
H     5.156000000     2.750000000    -5.176000000
O     5.904000000     2.019000000     2.188000000
H     6.292000000     2.893000000     2.159000000
H     5.007000000     2.145000000     1.877000000
O    -5.544000000    -2.367000000    -2.089000000
H    -5.679000000    -2.292000000    -1.145000000
H    -5.854000000    -3.246000000    -2.307000000
O     3.574000000     3.141000000     1.770000000
H     3.928000000     3.710000000     1.086000000
H     2.780000000     3.587000000     2.065000000
O     2.697000000     2.042000000    -6.473000000
H     3.034000000     1.323000000    -5.938000000
H     3.415000000     2.675000000    -6.502000000
O    -1.076000000     6.679000000    -2.870000000
H    -1.174000000     7.198000000    -2.072000000
H    -1.263000000     5.781000000    -2.597000000
O     4.399000000    -2.591000000     0.335000000
H     3.849000000    -2.408000000     1.096000000
H     5.103000000    -1.944000000     0.386000000
O    -0.298000000    -4.599000000     1.648000000
H     0.163000000    -4.051000000     2.283000000
H     0.375000000    -4.853000000     1.018000000
O    -4.126000000    -4.723000000     0.124000000
H    -3.641000000    -4.479000000     0.913000000
H    -4.582000000    -3.922000000    -0.134000000
O    -3.676000000    -0.845000000     6.036000000
H    -4.323000000    -0.533000000     6.668000000
H    -3.904000000    -1.764000000     5.893000000
O     6.428000000    -0.597000000     0.265000000
H     6.169000000     0.311000000     0.110000000
H     7.259000000    -0.532000000     0.736000000
O    -4.151000000    -0.216000000    -3.680000000
H    -4.569000000    -1.006000000    -3.337000000
H    -3.245000000    -0.274000000    -3.376000000
O    -1.246000000    -0.028000000    -3.763000000
H    -0.870000000     0.011000000    -4.642000000
H    -1.006000000     0.807000000    -3.362000000
O     1.455000000    -3.216000000    -3.574000000
H     1.660000000    -4.120000000    -3.335000000
H     0.596000000    -3.055000000    -3.185000000
O    -3.149000000     2.927000000    -5.858000000
H    -3.608000000     3.703000000    -6.180000000
H    -3.800000000     2.226000000    -5.907000000
O    -0.699000000     1.481000000     2.590000000
H    -0.010000000     0.870000000     2.851000000
H    -0.745000000     1.397000000     1.637000000
O     0.150000000    -0.506000000     4.505000000
H    -0.150000000     0.126000000     5.158000000
H    -0.632000000    -1.014000000     4.286000000
