158
-3040.30640
C    -0.488000000    -0.006000000    -1.388000000
H    -0.932000000    -0.076000000    -2.378000000
C    -1.240000000    -0.379000000    -0.232000000
H    -2.238000000    -0.796000000    -0.338000000
C    -0.662000000    -0.325000000     0.994000000
H    -1.238000000    -0.645000000     1.863000000
C     0.608000000     0.242000000     1.133000000
H     1.087000000     0.446000000     2.087000000
C     1.416000000     0.559000000     0.028000000
H     2.478000000     0.718000000     0.195000000
C     0.878000000     0.456000000    -1.250000000
C     1.629000000     0.764000000    -2.522000000
O     1.034000000     0.948000000    -3.567000000
O     2.847000000     0.986000000    -2.558000000
O     4.898000000    -1.144000000    -5.161000000
H     5.101000000    -0.348000000    -4.670000000
H     3.959000000    -1.083000000    -5.339000000
O     4.967000000     1.426000000    -3.928000000
H     4.563000000     1.726000000    -4.743000000
H     4.234000000     1.106000000    -3.401000000
O    -4.854000000     0.496000000     1.612000000
H    -4.941000000     0.152000000     0.724000000
H    -5.681000000     0.273000000     2.038000000
O    -1.934000000    -3.692000000    -1.556000000
H    -2.518000000    -2.953000000    -1.728000000
H    -2.250000000    -4.059000000    -0.730000000
O     5.499000000     2.333000000     0.864000000
H     4.769000000     2.479000000     0.262000000
H     5.778000000     3.212000000     1.120000000
O    -2.580000000     3.471000000    -2.222000000
H    -2.692000000     3.383000000    -1.275000000
H    -3.043000000     2.719000000    -2.589000000
O    -1.345000000     0.763000000    -4.822000000
H    -0.494000000     0.712000000    -4.387000000
H    -1.542000000     1.699000000    -4.853000000
O     1.054000000    -2.178000000     7.110000000
H     0.584000000    -2.090000000     6.281000000
H     1.977000000    -2.209000000     6.861000000
O    -0.691000000     0.782000000     6.254000000
H    -0.092000000     0.326000000     5.663000000
H    -1.407000000     0.163000000     6.395000000
O     3.213000000     4.538000000     2.496000000
H     2.977000000     3.912000000     3.181000000
H     3.531000000     3.995000000     1.775000000
O     3.532000000     2.998000000    -0.887000000
H     3.485000000     3.888000000    -1.235000000
H     3.327000000     2.437000000    -1.635000000
O     2.770000000    -2.871000000    -6.105000000
H     3.344000000    -3.291000000    -5.465000000
H     2.031000000    -2.549000000    -5.589000000
O     1.257000000    -5.621000000     0.681000000
H     1.738000000    -5.647000000     1.508000000
H     0.914000000    -4.729000000     0.631000000
O    -0.814000000    -2.484000000    -6.120000000
H    -0.132000000    -2.203000000    -5.511000000
H    -1.333000000    -1.696000000    -6.280000000
O     2.786000000     1.314000000    -5.965000000
H     2.237000000     1.237000000    -5.184000000
H     2.578000000     2.178000000    -6.319000000
O    -0.458000000     5.411000000    -1.575000000
H    -1.314000000     5.063000000    -1.824000000
H     0.126000000     4.652000000    -1.600000000
O     2.114000000    -2.797000000     3.152000000
H     2.565000000    -3.584000000     3.456000000
H     2.736000000    -2.379000000     2.556000000
O    -4.380000000    -0.081000000    -4.985000000
H    -3.652000000     0.194000000    -5.542000000
H    -5.161000000     0.073000000    -5.516000000
O    -1.494000000     3.959000000    -4.926000000
H    -1.998000000     3.965000000    -4.113000000
H    -1.553000000     4.857000000    -5.251000000
O     0.451000000     3.405000000     0.190000000
H     0.828000000     2.525000000     0.202000000
H     0.288000000     3.608000000     1.112000000
O     4.055000000    -1.427000000     1.804000000
H     4.338000000    -2.295000000     1.516000000
H     4.078000000    -0.892000000     1.011000000
O    -0.051000000    -3.875000000     4.529000000
H     0.335000000    -4.649000000     4.940000000
H     0.674000000    -3.470000000     4.054000000
O    -3.023000000     3.546000000     4.744000000
H    -3.433000000     4.409000000     4.808000000
H    -3.748000000     2.929000000     4.847000000
O    -4.424000000     1.762000000    -2.991000000
H    -5.319000000     1.609000000    -2.690000000
H    -4.203000000     0.979000000    -3.496000000
O    -2.569000000     1.289000000     2.918000000
H    -2.268000000     0.582000000     3.489000000
H    -3.473000000     1.059000000     2.707000000
O     2.304000000     5.292000000     0.069000000
H     2.630000000     5.100000000     0.949000000
H     1.585000000     4.674000000    -0.059000000
O     5.125000000     0.983000000     3.439000000
H     5.411000000     0.086000000     3.266000000
H     5.405000000     1.477000000     2.669000000
O     2.181000000    -2.479000000    -1.944000000
H     2.481000000    -3.373000000    -2.106000000
H     1.627000000    -2.549000000    -1.167000000
O    -2.640000000    -4.155000000     3.334000000
H    -1.760000000    -4.225000000     3.704000000
H    -3.199000000    -3.954000000     4.084000000
O     0.221000000    -5.010000000    -2.690000000
H    -0.595000000    -4.643000000    -2.350000000
H     0.545000000    -5.568000000    -1.983000000
O     0.788000000    -0.765000000     4.612000000
H     1.462000000    -0.085000000     4.615000000
H     1.205000000    -1.513000000     4.185000000
O     4.272000000    -0.757000000    -1.081000000
H     3.955000000    -1.501000000    -1.594000000
H     3.794000000    -0.005000000    -1.430000000
O    -3.400000000    -4.515000000     0.643000000
H    -2.845000000    -4.051000000     1.271000000
H    -4.168000000    -4.777000000     1.151000000
O     3.374000000     0.229000000    -8.246000000
H     3.429000000     0.400000000    -7.306000000
H     2.662000000    -0.404000000    -8.334000000
O     0.969000000     3.640000000    -3.769000000
H     0.972000000     2.732000000    -3.464000000
H     0.107000000     3.756000000    -4.167000000
O    -3.650000000    -0.350000000     5.887000000
H    -4.070000000    -1.210000000     5.861000000
H    -4.063000000     0.139000000     5.175000000
O     2.651000000     1.228000000     4.694000000
H     3.444000000     1.279000000     4.160000000
H     2.511000000     2.124000000     5.001000000
O     0.986000000    -1.733000000    -4.221000000
H     1.033000000    -0.796000000    -4.028000000
H     1.374000000    -2.155000000    -3.455000000
O     6.529000000    -0.062000000     0.374000000
H     5.845000000    -0.402000000    -0.202000000
H     6.374000000     0.882000000     0.399000000
O     7.114000000     1.365000000    -1.970000000
H     6.950000000     2.298000000    -1.834000000
H     6.438000000     1.091000000    -2.590000000
O    -0.197000000     2.776000000     2.867000000
H    -0.941000000     2.197000000     2.702000000
H     0.127000000     2.509000000     3.727000000
O     3.356000000     5.283000000    -4.279000000
H     3.483000000     5.844000000    -3.514000000
H     2.656000000     4.683000000    -4.022000000
O    -3.741000000    -2.032000000    -3.153000000
H    -3.400000000    -2.780000000    -3.643000000
H    -3.750000000    -1.315000000    -3.787000000
O    -0.319000000     1.263000000    -8.247000000
H    -0.235000000     1.702000000    -9.094000000
H    -0.526000000     1.967000000    -7.632000000
O     0.964000000    -2.998000000     0.373000000
H     0.381000000    -2.250000000     0.245000000
H     1.354000000    -2.853000000     1.235000000
O    -2.689000000     0.150000000    -6.977000000
H    -2.768000000     0.985000000    -7.437000000
H    -1.863000000     0.216000000    -6.499000000
O    -2.398000000     3.275000000     0.327000000
H    -1.509000000     2.967000000     0.150000000
H    -2.652000000     2.825000000     1.133000000
O    -6.305000000    -1.914000000    -1.838000000
H    -6.772000000    -1.121000000    -2.100000000
H    -5.465000000    -1.859000000    -2.294000000
