158
-3031.47084
C    -0.777000000     0.726000000    -0.972000000
H    -1.459000000     1.385000000    -1.502000000
C    -1.298000000    -0.001000000     0.070000000
H    -2.375000000     0.006000000     0.217000000
C    -0.442000000    -0.703000000     0.886000000
H    -0.955000000    -1.279000000     1.716000000
C     0.922000000    -0.685000000     0.723000000
H     1.501000000    -1.255000000     1.444000000
C     1.476000000     0.053000000    -0.368000000
H     2.549000000     0.170000000    -0.498000000
C     0.598000000     0.817000000    -1.161000000
C     1.146000000     1.790000000    -2.200000000
O     0.396000000     2.572000000    -2.687000000
O     2.312000000     1.903000000    -2.438000000
O    -5.449000000     3.974000000     1.090000000
H    -4.676000000     3.512000000     0.765000000
H    -5.333000000     4.875000000     0.790000000
O    -6.216000000     0.164000000     2.748000000
H    -7.061000000    -0.283000000     2.791000000
H    -6.121000000     0.578000000     3.606000000
O     3.716000000     3.420000000    -4.122000000
H     3.189000000     2.899000000    -3.515000000
H     3.099000000     4.049000000    -4.495000000
O    -3.386000000     1.057000000     3.155000000
H    -3.775000000     1.190000000     2.291000000
H    -4.121000000     1.132000000     3.763000000
O     0.223000000    -1.922000000    -2.774000000
H     1.053000000    -1.537000000    -2.490000000
H    -0.421000000    -1.227000000    -2.639000000
O     1.930000000     6.167000000    -4.847000000
H     1.269000000     5.480000000    -4.939000000
H     2.034000000     6.274000000    -3.902000000
O     5.063000000     3.384000000     1.435000000
H     4.612000000     3.380000000     0.591000000
H     5.717000000     4.078000000     1.354000000
O    -2.070000000    -6.540000000     1.654000000
H    -2.884000000    -7.009000000     1.474000000
H    -2.281000000    -5.971000000     2.395000000
O    -2.870000000     2.975000000     1.019000000
H    -2.197000000     2.519000000     1.525000000
H    -2.379000000     3.553000000     0.434000000
O    -0.120000000     0.557000000    -4.743000000
H    -0.358000000     1.299000000    -4.187000000
H     0.116000000     0.953000000    -5.582000000
O    -1.239000000     0.313000000     4.342000000
H    -2.004000000     0.498000000     3.796000000
H    -1.271000000    -0.632000000     4.487000000
O     3.508000000     3.798000000    -0.933000000
H     4.286000000     4.013000000    -1.448000000
H     3.219000000     2.953000000    -1.277000000
O    -3.213000000    -5.135000000    -1.639000000
H    -2.616000000    -4.932000000    -2.360000000
H    -2.900000000    -4.599000000    -0.911000000
O     2.932000000    -3.705000000     0.156000000
H     2.247000000    -4.118000000    -0.370000000
H     3.183000000    -2.928000000    -0.344000000
O    -3.934000000     4.400000000    -2.085000000
H    -3.011000000     4.540000000    -2.296000000
H    -4.051000000     4.819000000    -1.232000000
O     2.807000000    -0.579000000    -4.583000000
H     3.226000000    -0.175000000    -5.343000000
H     2.143000000     0.054000000    -4.311000000
O    -1.144000000     4.435000000    -2.054000000
H    -0.533000000     5.164000000    -1.946000000
H    -0.584000000     3.673000000    -2.205000000
O     2.790000000    -3.757000000     2.898000000
H     2.848000000    -4.695000000     2.721000000
H     2.542000000    -3.370000000     2.058000000
O    -2.350000000     4.317000000    -4.960000000
H    -1.409000000     4.181000000    -4.851000000
H    -2.691000000     4.360000000    -4.067000000
O     1.855000000     2.788000000     2.684000000
H     1.742000000     1.861000000     2.897000000
H     1.280000000     3.246000000     3.297000000
O     5.222000000    -2.442000000     2.734000000
H     5.388000000    -2.346000000     3.672000000
H     4.655000000    -3.211000000     2.670000000
O     0.844000000    -6.233000000    -1.678000000
H     0.524000000    -5.499000000    -1.153000000
H     1.497000000    -6.659000000    -1.122000000
O     1.233000000    -3.216000000     6.882000000
H     1.315000000    -2.543000000     6.206000000
H     2.134000000    -3.474000000     7.074000000
O    -3.812000000    -4.588000000     2.942000000
H    -4.716000000    -4.895000000     3.013000000
H    -3.733000000    -3.916000000     3.619000000
O    -5.502000000    -0.054000000    -1.813000000
H    -5.797000000     0.836000000    -1.621000000
H    -5.018000000     0.025000000    -2.635000000
O     5.576000000    -1.912000000     0.198000000
H     5.630000000    -0.957000000     0.232000000
H     5.456000000    -2.178000000     1.109000000
O    -1.028000000    -2.464000000     4.418000000
H    -0.084000000    -2.352000000     4.300000000
H    -1.115000000    -3.301000000     4.874000000
O     1.594000000    -1.891000000     4.351000000
H     2.182000000    -1.136000000     4.354000000
H     2.109000000    -2.593000000     3.953000000
O     4.711000000     0.274000000    -2.090000000
H     5.231000000     0.291000000    -2.893000000
H     3.968000000     0.849000000    -2.274000000
O    -3.759000000    -2.362000000     4.533000000
H    -2.853000000    -2.067000000     4.618000000
H    -4.244000000    -1.577000000     4.279000000
O     0.710000000     3.858000000    -5.014000000
H     0.765000000     3.352000000    -4.204000000
H     1.069000000     3.276000000    -5.684000000
O    -2.774000000    -1.048000000     6.972000000
H    -3.604000000    -1.508000000     6.844000000
H    -2.996000000    -0.122000000     6.877000000
O    -5.576000000     2.910000000    -3.597000000
H    -4.948000000     2.285000000    -3.960000000
H    -5.035000000     3.628000000    -3.267000000
O     3.101000000     0.374000000     4.475000000
H     3.796000000     0.498000000     3.828000000
H     3.564000000     0.224000000     5.299000000
O     0.535000000    -5.957000000     1.983000000
H    -0.322000000    -6.158000000     1.608000000
H     0.341000000    -5.627000000     2.861000000
O     3.292000000    -2.462000000    -2.615000000
H     3.962000000    -1.912000000    -2.209000000
H     2.998000000    -1.960000000    -3.375000000
O     6.071000000     0.656000000     0.017000000
H     5.693000000     0.345000000    -0.805000000
H     6.729000000     1.298000000    -0.250000000
O    -0.450000000     3.053000000     4.162000000
H    -1.220000000     3.616000000     4.239000000
H    -0.748000000     2.195000000     4.463000000
O    -2.929000000    -3.481000000     0.513000000
H    -3.182000000    -3.937000000     1.316000000
H    -3.551000000    -2.757000000     0.442000000
O     1.312000000     5.894000000    -1.840000000
H     1.203000000     6.841000000    -1.752000000
H     1.332000000     5.571000000    -0.940000000
O    -4.837000000    -1.497000000     0.878000000
H    -4.802000000    -1.080000000     0.017000000
H    -5.198000000    -0.825000000     1.456000000
O     6.235000000     3.338000000    -5.358000000
H     5.385000000     3.361000000    -4.919000000
H     6.497000000     4.256000000    -5.420000000
O     1.022000000     1.904000000    -6.651000000
H     0.298000000     1.953000000    -7.276000000
H     1.737000000     1.502000000    -7.145000000
O     0.240000000    -3.687000000    -0.668000000
H    -0.006000000    -3.263000000    -1.491000000
H    -0.406000000    -3.375000000    -0.035000000
O    -3.961000000     0.137000000    -4.222000000
H    -3.899000000    -0.809000000    -4.347000000
H    -3.322000000     0.503000000    -4.834000000
O     1.650000000     4.885000000     0.787000000
H     1.737000000     4.263000000     1.509000000
H     2.263000000     4.569000000     0.123000000
O     0.741000000     1.077000000     6.179000000
H     0.029000000     0.709000000     5.656000000
H     1.531000000     0.661000000     5.835000000
O    -6.824000000    -3.510000000     1.016000000
H    -6.768000000    -4.107000000     1.763000000
H    -6.119000000    -2.879000000     1.161000000
