158
-3031.34502
C     0.993000000     1.116000000     0.117000000
H     1.678000000     1.940000000     0.301000000
C     0.011000000     0.737000000     1.051000000
H    -0.151000000     1.283000000     1.977000000
C    -0.848000000    -0.323000000     0.866000000
H    -1.557000000    -0.618000000     1.615000000
C    -0.708000000    -1.064000000    -0.317000000
H    -1.348000000    -1.927000000    -0.481000000
C     0.254000000    -0.742000000    -1.299000000
H     0.276000000    -1.331000000    -2.212000000
C     1.112000000     0.352000000    -1.056000000
C     2.066000000     0.771000000    -2.226000000
O     2.800000000     1.736000000    -2.168000000
O     2.052000000     0.046000000    -3.216000000
O     2.730000000     2.942000000    -5.053000000
H     3.247000000     2.360000000    -5.609000000
H     2.569000000     2.434000000    -4.258000000
O     0.997000000     3.608000000    -2.707000000
H     1.522000000     2.841000000    -2.479000000
H     1.191000000     3.765000000    -3.631000000
O    -1.157000000     4.991000000    -1.748000000
H    -1.067000000     5.605000000    -2.477000000
H    -0.585000000     4.259000000    -1.979000000
O    -0.240000000    -5.782000000     1.070000000
H    -1.124000000    -5.678000000     0.717000000
H    -0.208000000    -5.184000000     1.816000000
O     0.055000000     3.389000000    -5.474000000
H    -0.199000000     2.559000000    -5.071000000
H     1.010000000     3.406000000    -5.405000000
O     4.358000000    -3.687000000    -2.865000000
H     4.586000000    -3.341000000    -2.002000000
H     5.089000000    -3.430000000    -3.427000000
O    -0.001000000     0.736000000    -4.527000000
H     0.750000000     0.401000000    -4.037000000
H    -0.004000000     0.227000000    -5.337000000
O    -2.960000000    -5.054000000     0.185000000
H    -3.405000000    -4.453000000    -0.412000000
H    -3.653000000    -5.376000000     0.762000000
O     5.047000000     2.893000000    -2.675000000
H     4.174000000     2.551000000    -2.482000000
H     5.343000000     3.275000000    -1.849000000
O     1.814000000    -4.396000000    -2.860000000
H     1.635000000    -4.414000000    -1.920000000
H     2.727000000    -4.116000000    -2.925000000
O     4.545000000    -2.364000000     1.698000000
H     4.962000000    -2.790000000     0.948000000
H     3.658000000    -2.166000000     1.398000000
O     2.077000000    -2.016000000    -7.179000000
H     2.195000000    -2.932000000    -7.433000000
H     1.160000000    -1.958000000    -6.913000000
O    -0.956000000    -1.082000000     4.981000000
H    -1.177000000    -0.158000000     4.857000000
H    -1.570000000    -1.552000000     4.418000000
O    -6.039000000     0.454000000    -2.196000000
H    -5.226000000     0.095000000    -1.841000000
H    -6.030000000     1.374000000    -1.932000000
O     5.782000000     3.893000000    -0.265000000
H     5.963000000     4.748000000    -0.655000000
H     5.741000000     4.063000000     0.676000000
O    -0.625000000     1.833000000     4.435000000
H     0.253000000     2.138000000     4.664000000
H    -1.020000000     2.569000000     3.969000000
O     0.632000000    -1.229000000     7.127000000
H    -0.021000000    -1.170000000     6.430000000
H     1.162000000    -0.438000000     7.027000000
O    -3.004000000    -2.268000000     3.765000000
H    -3.030000000    -3.176000000     3.465000000
H    -3.340000000    -1.762000000     3.025000000
O    -1.579000000    -7.122000000    -1.602000000
H    -2.056000000    -7.688000000    -0.996000000
H    -1.878000000    -6.238000000    -1.391000000
O    -4.896000000     1.280000000     1.382000000
H    -4.491000000     2.131000000     1.215000000
H    -4.477000000     0.688000000     0.757000000
O    -1.885000000     2.080000000    -0.842000000
H    -2.455000000     2.604000000    -0.280000000
H    -1.101000000     1.928000000    -0.314000000
O     4.833000000     4.955000000    -4.789000000
H     4.770000000     4.159000000    -4.261000000
H     4.291000000     5.593000000    -4.325000000
O    -3.712000000    -0.123000000    -0.670000000
H    -3.857000000    -1.028000000    -0.946000000
H    -2.786000000    -0.092000000    -0.428000000
O    -6.212000000    -2.311000000     0.981000000
H    -6.506000000    -1.732000000     0.278000000
H    -6.302000000    -1.787000000     1.777000000
O     2.204000000     5.707000000     2.059000000
H     3.070000000     5.500000000     2.410000000
H     2.243000000     6.643000000     1.862000000
O    -3.239000000    -2.367000000    -2.863000000
H    -3.732000000    -1.691000000    -3.327000000
H    -2.486000000    -2.544000000    -3.427000000
O    -4.676000000    -4.226000000    -1.707000000
H    -5.447000000    -3.658000000    -1.706000000
H    -4.029000000    -3.750000000    -2.228000000
O    -5.654000000    -0.930000000     3.365000000
H    -5.871000000    -0.025000000     3.139000000
H    -5.569000000    -0.925000000     4.318000000
O     5.224000000    -0.392000000    -2.604000000
H     5.042000000     0.544000000    -2.691000000
H     4.419000000    -0.820000000    -2.895000000
O    -2.357000000     4.057000000     3.653000000
H    -2.962000000     4.408000000     4.307000000
H    -1.852000000     4.816000000     3.362000000
O     3.653000000    -1.009000000    -5.236000000
H     3.119000000    -0.753000000    -4.484000000
H     3.025000000    -1.361000000    -5.867000000
O     1.709000000     3.024000000     5.301000000
H     2.614000000     3.177000000     5.029000000
H     1.762000000     2.273000000     5.894000000
O     1.266000000    -2.525000000     4.203000000
H     0.561000000    -1.914000000     4.417000000
H     0.959000000    -3.370000000     4.531000000
O    -0.532000000    -1.195000000    -6.533000000
H    -1.463000000    -1.381000000    -6.413000000
H    -0.503000000    -0.570000000    -7.257000000
O     2.644000000     5.720000000    -0.795000000
H     2.414000000     4.892000000    -1.217000000
H     2.969000000     5.468000000     0.069000000
O     7.625000000     1.795000000    -0.450000000
H     6.926000000     2.449000000    -0.441000000
H     7.972000000     1.828000000    -1.342000000
O     4.852000000     4.973000000     2.268000000
H     4.965000000     4.024000000     2.322000000
H     5.089000000     5.293000000     3.138000000
O    -5.811000000    -5.141000000     1.766000000
H    -5.776000000    -4.189000000     1.672000000
H    -6.524000000    -5.413000000     1.189000000
O    -0.675000000    -3.014000000    -3.652000000
H    -0.081000000    -2.676000000    -4.323000000
H    -0.099000000    -3.418000000    -3.004000000
O     1.775000000    -4.412000000    -0.212000000
H     1.001000000    -4.899000000     0.069000000
H     1.861000000    -3.707000000     0.431000000
O     7.117000000     2.425000000    -4.206000000
H     7.742000000     2.312000000    -3.490000000
H     6.267000000     2.501000000    -3.773000000
O    -3.356000000     3.436000000     1.303000000
H    -3.561000000     4.357000000     1.147000000
H    -2.920000000     3.428000000     2.155000000
O    -2.154000000    -5.344000000    -4.326000000
H    -1.697000000    -4.557000000    -4.030000000
H    -1.755000000    -5.550000000    -5.172000000
O    -2.337000000     1.632000000    -3.419000000
H    -2.118000000     1.817000000    -2.506000000
H    -1.498000000     1.425000000    -3.830000000
O     4.724000000     0.978000000    -6.642000000
H     5.681000000     1.003000000    -6.641000000
H     4.502000000     0.271000000    -6.036000000
O    -4.051000000    -0.373000000    -4.381000000
H    -4.958000000    -0.085000000    -4.280000000
H    -3.529000000     0.397000000    -4.157000000
O     1.832000000    -2.243000000     1.569000000
H     1.767000000    -2.450000000     2.501000000
H     1.135000000    -1.606000000     1.416000000
O    -2.696000000     1.010000000     7.462000000
H    -2.266000000     1.453000000     6.731000000
H    -2.893000000     1.710000000     8.085000000
