158
-2999.49189
C    -0.676000000     1.332000000    -0.199000000
H    -1.303000000     2.216000000    -0.277000000
C    -1.271000000     0.095000000     0.115000000
H    -2.350000000    -0.033000000     0.109000000
C    -0.542000000    -1.055000000     0.159000000
H    -1.127000000    -1.974000000     0.331000000
C     0.820000000    -1.019000000     0.059000000
H     1.346000000    -1.955000000     0.227000000
C     1.465000000     0.200000000    -0.105000000
H     2.549000000     0.282000000    -0.106000000
C     0.750000000     1.424000000    -0.266000000
C     1.467000000     2.692000000    -0.470000000
O     0.936000000     3.609000000    -1.040000000
O     2.625000000     2.667000000    -0.330000000
O    -0.579000000     3.207000000    -3.388000000
H    -0.238000000     3.336000000    -2.503000000
H    -0.783000000     4.090000000    -3.697000000
O    -3.373000000    -5.092000000    -0.339000000
H    -2.891000000    -5.890000000    -0.123000000
H    -3.221000000    -4.511000000     0.407000000
O     2.238000000     5.523000000    -1.910000000
H     1.799000000     4.743000000    -1.571000000
H     1.818000000     6.252000000    -1.453000000
O    -1.175000000     5.408000000    -0.274000000
H    -1.166000000     5.061000000    -1.166000000
H    -0.442000000     4.971000000     0.160000000
O    -3.605000000     5.808000000    -2.650000000
H    -3.748000000     6.732000000    -2.447000000
H    -2.815000000     5.801000000    -3.190000000
O    -0.083000000     8.080000000    -2.916000000
H     0.114000000     7.705000000    -2.057000000
H     0.660000000     8.653000000    -3.104000000
O     4.950000000    -0.288000000     0.923000000
H     5.257000000    -0.301000000     0.016000000
H     4.525000000    -1.136000000     1.045000000
O    -1.189000000     5.764000000    -3.840000000
H    -0.944000000     6.685000000    -3.753000000
H    -1.429000000     5.666000000    -4.761000000
O    -3.555000000    -4.065000000     2.490000000
H    -4.209000000    -4.738000000     2.299000000
H    -3.528000000    -4.022000000     3.445000000
O     5.617000000     6.201000000     0.221000000
H     5.531000000     5.978000000    -0.706000000
H     4.854000000     5.798000000     0.635000000
O     2.750000000    -1.009000000    -3.869000000
H     3.472000000    -0.786000000    -3.282000000
H     2.592000000    -1.940000000    -3.712000000
O    -3.934000000     4.190000000    -0.560000000
H    -3.333000000     4.643000000     0.032000000
H    -3.880000000     4.684000000    -1.379000000
O    -5.051000000     0.222000000     2.505000000
H    -5.814000000     0.500000000     3.012000000
H    -5.261000000     0.465000000     1.603000000
O    -3.963000000    -6.730000000    -2.756000000
H    -3.928000000    -7.645000000    -2.477000000
H    -3.941000000    -6.230000000    -1.939000000
O     0.262000000     3.855000000     2.478000000
H    -0.364000000     3.219000000     2.824000000
H     0.895000000     3.977000000     3.186000000
O    -4.758000000    -1.846000000    -2.013000000
H    -4.670000000    -1.693000000    -1.073000000
H    -4.971000000    -0.986000000    -2.376000000
O    -1.751000000     0.872000000    -3.626000000
H    -1.385000000     1.754000000    -3.562000000
H    -1.130000000     0.320000000    -3.150000000
O     1.861000000    -0.206000000     3.171000000
H     1.519000000    -0.848000000     2.549000000
H     2.670000000    -0.597000000     3.499000000
O    -5.687000000     0.337000000    -0.168000000
H    -6.597000000     0.102000000    -0.353000000
H    -5.644000000     1.278000000    -0.338000000
O    -1.953000000    -7.885000000     0.213000000
H    -1.171000000    -7.563000000    -0.234000000
H    -2.299000000    -8.563000000    -0.368000000
O     5.867000000     0.134000000    -1.691000000
H     5.287000000     0.840000000    -1.977000000
H     6.663000000     0.580000000    -1.401000000
O    -4.359000000     1.828000000    -2.752000000
H    -3.426000000     1.616000000    -2.773000000
H    -4.460000000     2.388000000    -1.982000000
O    -4.741000000    -2.609000000     0.732000000
H    -4.906000000    -1.847000000     1.286000000
H    -4.318000000    -3.241000000     1.314000000
O     2.082000000    -3.443000000     3.029000000
H     2.434000000    -3.507000000     3.917000000
H     1.186000000    -3.774000000     3.103000000
O     4.210000000    -2.651000000     1.568000000
H     5.042000000    -3.125000000     1.565000000
H     3.607000000    -3.231000000     2.034000000
O     4.585000000     2.090000000     1.988000000
H     4.827000000     1.211000000     1.698000000
H     4.147000000     2.480000000     1.231000000
O     4.069000000     2.510000000     4.578000000
H     4.913000000     2.300000000     4.978000000
H     4.207000000     2.368000000     3.641000000
O     3.772000000     7.056000000     2.661000000
H     3.319000000     6.243000000     2.437000000
H     3.265000000     7.741000000     2.226000000
O     2.352000000     4.954000000     1.234000000
H     1.541000000     4.536000000     1.522000000
H     2.624000000     4.447000000     0.469000000
O     1.894000000    -5.198000000     0.066000000
H     1.544000000    -4.761000000     0.842000000
H     2.691000000    -4.711000000    -0.144000000
O    -0.437000000    -1.473000000     5.479000000
H    -0.123000000    -0.569000000     5.464000000
H    -0.959000000    -1.560000000     4.682000000
O     4.385000000     2.245000000    -2.431000000
H     4.113000000     2.425000000    -1.532000000
H     3.707000000     2.649000000    -2.972000000
O    -3.082000000    -0.171000000     4.182000000
H    -3.700000000     0.047000000     3.484000000
H    -3.509000000    -0.877000000     4.668000000
O     0.671000000     2.123000000    -5.771000000
H     1.526000000     1.697000000    -5.831000000
H     0.560000000     2.307000000    -4.838000000
O    -6.490000000    -4.819000000    -1.617000000
H    -5.724000000    -4.257000000    -1.494000000
H    -7.049000000    -4.630000000    -0.864000000
O     4.351000000    -1.138000000     3.895000000
H     5.212000000    -0.751000000     4.048000000
H     4.432000000    -1.576000000     3.048000000
O     1.110000000     7.464000000    -0.562000000
H     1.079000000     6.764000000     0.091000000
H     1.678000000     8.129000000    -0.173000000
O    -1.136000000    -2.252000000    -4.263000000
H    -0.828000000    -1.462000000    -3.818000000
H    -0.691000000    -2.237000000    -5.110000000
O     3.298000000     7.436000000    -3.697000000
H     2.878000000     6.811000000    -3.106000000
H     2.665000000     7.562000000    -4.403000000
O     2.997000000     4.196000000    -4.451000000
H     2.621000000     4.522000000    -3.633000000
H     2.340000000     4.401000000    -5.116000000
O    -3.386000000    -3.347000000    -3.857000000
H    -4.022000000    -2.933000000    -3.273000000
H    -2.554000000    -2.926000000    -3.641000000
O     0.406000000    -0.475000000    -2.861000000
H     0.550000000    -0.410000000    -1.917000000
H     1.286000000    -0.501000000    -3.236000000
O    -1.502000000     7.555000000     1.478000000
H    -1.882000000     7.005000000     2.163000000
H    -1.321000000     6.951000000     0.758000000
O     7.413000000     2.868000000     1.591000000
H     6.544000000     3.270000000     1.580000000
H     8.002000000     3.580000000     1.842000000
O    -1.492000000     1.768000000     3.179000000
H    -1.972000000     1.189000000     3.771000000
H    -1.347000000     1.240000000     2.393000000
O    -0.781000000    -4.931000000     2.874000000
H    -1.441000000    -4.385000000     2.447000000
H    -1.284000000    -5.521000000     3.434000000
O     2.559000000     4.652000000     3.905000000
H     3.037000000     3.828000000     3.996000000
H     2.481000000     4.781000000     2.959000000
O    -1.524000000    -5.396000000    -3.132000000
H    -2.475000000    -5.359000000    -3.034000000
H    -1.268000000    -4.495000000    -3.328000000
