158
-3055.77038
C     1.015000000     0.993000000    -0.401000000
H     1.528000000     1.905000000    -0.696000000
C     0.049000000     1.247000000     0.581000000
H     0.090000000     2.173000000     1.149000000
C    -0.882000000     0.219000000     0.800000000
H    -1.748000000     0.349000000     1.449000000
C    -0.748000000    -0.987000000     0.131000000
H    -1.428000000    -1.804000000     0.360000000
C     0.275000000    -1.248000000    -0.762000000
H     0.273000000    -2.168000000    -1.342000000
C     1.124000000    -0.237000000    -1.060000000
C     2.159000000    -0.408000000    -2.076000000
O     3.029000000     0.397000000    -2.137000000
O     2.208000000    -1.474000000    -2.664000000
O    -2.135000000    -0.665000000    -4.076000000
H    -1.562000000     0.100000000    -4.017000000
H    -1.963000000    -1.027000000    -4.945000000
O     4.016000000    -4.311000000    -6.356000000
H     3.901000000    -3.398000000    -6.092000000
H     4.964000000    -4.445000000    -6.347000000
O    -3.342000000    -2.019000000    -1.875000000
H    -4.242000000    -1.694000000    -1.882000000
H    -2.855000000    -1.387000000    -2.405000000
O     6.932000000     0.653000000    -4.502000000
H     6.301000000     0.169000000    -3.968000000
H     7.634000000     0.882000000    -3.893000000
O    -0.107000000     0.949000000    -5.440000000
H     0.369000000     0.189000000    -5.775000000
H    -0.589000000     1.282000000    -6.197000000
O     5.131000000    -0.665000000    -3.130000000
H     4.308000000    -0.226000000    -2.917000000
H     4.916000000    -1.598000000    -3.114000000
O     1.081000000     4.354000000    -1.443000000
H     0.629000000     4.517000000    -2.271000000
H     1.982000000     4.157000000    -1.697000000
O    -0.012000000     0.615000000     3.878000000
H     0.641000000     0.145000000     3.360000000
H     0.212000000     1.538000000     3.767000000
O    -2.366000000     3.091000000     6.391000000
H    -2.364000000     2.355000000     7.003000000
H    -1.999000000     2.732000000     5.583000000
O     3.416000000     2.957000000    -2.345000000
H     3.024000000     2.084000000    -2.317000000
H     3.801000000     3.019000000    -3.219000000
O     2.028000000    -4.257000000     2.016000000
H     1.353000000    -4.190000000     2.692000000
H     1.743000000    -4.985000000     1.464000000
O     0.588000000    -4.048000000    -3.983000000
H     0.738000000    -3.103000000    -4.015000000
H     1.261000000    -4.377000000    -3.388000000
O     3.673000000     0.303000000    -6.346000000
H     3.768000000     0.875000000    -5.585000000
H     3.203000000     0.835000000    -6.988000000
O    -1.865000000     4.764000000     1.946000000
H    -2.437000000     5.407000000     2.364000000
H    -1.877000000     4.012000000     2.538000000
O    -2.412000000     3.117000000    -4.109000000
H    -1.813000000     2.650000000    -3.528000000
H    -1.863000000     3.769000000    -4.546000000
O     4.733000000     2.433000000    -4.795000000
H     4.761000000     2.817000000    -5.671000000
H     5.640000000     2.185000000    -4.613000000
O    -5.332000000     2.400000000     5.716000000
H    -5.959000000     1.750000000     6.034000000
H    -4.477000000     1.988000000     5.838000000
O    -1.407000000    -4.763000000    -2.065000000
H    -1.749000000    -3.938000000    -1.721000000
H    -0.898000000    -4.509000000    -2.835000000
O     3.745000000    -0.998000000     3.760000000
H     2.910000000    -0.783000000     3.344000000
H     3.500000000    -1.407000000     4.590000000
O     6.889000000    -1.725000000     0.351000000
H     6.668000000    -1.083000000    -0.323000000
H     6.052000000    -2.128000000     0.583000000
O     2.107000000    -3.943000000    -1.744000000
H     2.917000000    -4.429000000    -1.899000000
H     2.330000000    -3.035000000    -1.951000000
O    -1.893000000    -4.656000000     2.381000000
H    -2.334000000    -4.144000000     1.704000000
H    -2.109000000    -5.565000000     2.174000000
O     5.881000000     2.263000000    -0.633000000
H     5.548000000     1.589000000    -0.042000000
H     5.139000000     2.473000000    -1.200000000
O    -2.433000000     2.389000000     3.452000000
H    -1.790000000     1.686000000     3.550000000
H    -3.202000000     1.959000000     3.078000000
O    -4.580000000     1.259000000     2.647000000
H    -5.009000000     0.450000000     2.927000000
H    -4.412000000     1.130000000     1.714000000
O     4.274000000     0.352000000     0.289000000
H     3.885000000     0.284000000    -0.583000000
H     4.410000000    -0.555000000     0.562000000
O    -0.144000000    -4.174000000    -6.670000000
H     0.227000000    -4.157000000    -5.788000000
H     0.509000000    -4.636000000    -7.196000000
O     1.150000000     3.105000000     3.534000000
H     1.319000000     3.335000000     2.621000000
H     1.039000000     3.946000000     3.977000000
O     0.806000000     4.682000000     1.226000000
H     0.897000000     4.559000000     0.281000000
H    -0.112000000     4.923000000     1.348000000
O     3.790000000     3.116000000     1.564000000
H     4.263000000     2.334000000     1.280000000
H     2.995000000     3.122000000     1.030000000
O    -2.114000000     3.858000000    -0.927000000
H    -2.738000000     4.072000000    -0.233000000
H    -1.788000000     2.988000000    -0.695000000
O     3.675000000     6.296000000    -0.393000000
H     2.759000000     6.022000000    -0.355000000
H     3.976000000     6.253000000     0.515000000
O    -4.493000000     4.479000000     4.008000000
H    -3.979000000     3.935000000     3.410000000
H    -4.765000000     3.880000000     4.703000000
O    -3.651000000    -3.663000000    -4.336000000
H    -3.415000000    -3.124000000    -3.581000000
H    -3.465000000    -3.109000000    -5.093000000
O     1.071000000    -6.262000000    -0.578000000
H     0.277000000    -5.935000000    -0.155000000
H     1.275000000    -5.606000000    -1.244000000
O     0.048000000    -3.628000000     3.783000000
H     0.044000000    -3.742000000     4.733000000
H    -0.763000000    -4.042000000     3.488000000
O    -3.415000000    -3.573000000     0.269000000
H    -3.376000000    -3.032000000    -0.521000000
H    -4.184000000    -4.129000000     0.140000000
O    -6.717000000    -3.217000000     2.724000000
H    -7.624000000    -3.506000000     2.631000000
H    -6.644000000    -2.465000000     2.136000000
O     2.823000000    -2.132000000    -5.645000000
H     2.738000000    -2.197000000    -4.694000000
H     3.514000000    -1.483000000    -5.780000000
O     0.405000000     3.497000000    -4.460000000
H     1.063000000     3.878000000    -5.041000000
H     0.352000000     2.579000000    -4.727000000
O     0.617000000    -1.127000000    -7.109000000
H     1.477000000    -1.547000000    -7.118000000
H    -0.004000000    -1.854000000    -7.053000000
O     1.373000000    -1.306000000     2.424000000
H     1.018000000    -2.156000000     2.684000000
H     1.190000000    -1.248000000     1.486000000
O    -5.509000000    -0.788000000     3.934000000
H    -5.144000000    -0.813000000     4.818000000
H    -5.978000000    -1.618000000     3.845000000
O    -4.078000000     1.201000000    -0.107000000
H    -4.706000000     1.900000000    -0.290000000
H    -3.821000000     0.878000000    -0.971000000
O    -1.163000000    -0.805000000     6.019000000
H    -0.560000000    -0.583000000     5.310000000
H    -0.923000000    -0.212000000     6.732000000
O    -4.023000000    -0.694000000     6.381000000
H    -3.154000000    -1.010000000     6.135000000
H    -3.885000000    -0.232000000     7.208000000
O     4.711000000    -3.202000000     0.944000000
H     4.932000000    -4.083000000     1.248000000
H     3.841000000    -3.035000000     1.306000000
O    -1.390000000     6.209000000    -2.254000000
H    -2.285000000     6.501000000    -2.084000000
H    -1.281000000     5.434000000    -1.703000000
