158
-3020.29125
C     0.450000000    -0.780000000     1.158000000
H     0.844000000    -1.330000000     2.009000000
C     1.207000000     0.246000000     0.526000000
H     2.157000000     0.530000000     0.973000000
C     0.725000000     0.891000000    -0.572000000
H     1.331000000     1.685000000    -1.115000000
C    -0.641000000     0.582000000    -0.938000000
H    -1.039000000     1.047000000    -1.837000000
C    -1.445000000    -0.348000000    -0.286000000
H    -2.463000000    -0.546000000    -0.613000000
C    -0.848000000    -1.117000000     0.703000000
C    -1.628000000    -2.267000000     1.382000000
O    -2.629000000    -2.803000000     0.928000000
O    -1.166000000    -2.764000000     2.401000000
O     0.205000000     1.057000000    -6.289000000
H     0.725000000     0.297000000    -6.028000000
H     0.642000000     1.800000000    -5.873000000
O     4.774000000     3.064000000     0.646000000
H     5.115000000     3.215000000     1.528000000
H     5.541000000     2.805000000     0.135000000
O    -3.963000000    -0.194000000     2.224000000
H    -4.425000000    -0.884000000     1.747000000
H    -3.690000000     0.424000000     1.547000000
O    -4.717000000     2.925000000     0.779000000
H    -4.304000000     2.738000000    -0.064000000
H    -4.038000000     3.373000000     1.284000000
O     4.577000000     1.541000000    -2.608000000
H     4.624000000     2.371000000    -3.083000000
H     5.483000000     1.232000000    -2.576000000
O    -1.457000000    -0.968000000     5.560000000
H    -1.755000000    -1.194000000     6.441000000
H    -1.923000000    -1.575000000     4.986000000
O    -6.657000000    -0.322000000    -3.910000000
H    -6.289000000    -0.353000000    -3.027000000
H    -7.602000000    -0.252000000    -3.774000000
O     3.765000000    -2.954000000    -3.423000000
H     2.883000000    -3.151000000    -3.108000000
H     3.737000000    -2.024000000    -3.646000000
O    -2.847000000    -5.488000000     1.000000000
H    -2.750000000    -4.566000000     1.237000000
H    -1.993000000    -5.876000000     1.193000000
O    -2.007000000    -3.716000000    -1.604000000
H    -1.161000000    -4.143000000    -1.467000000
H    -2.325000000    -3.526000000    -0.722000000
O     1.773000000    -3.662000000     3.827000000
H     2.477000000    -3.051000000     3.609000000
H     0.972000000    -3.204000000     3.571000000
O     0.247000000    -4.911000000    -0.589000000
H     0.014000000    -5.095000000     0.321000000
H     1.162000000    -5.182000000    -0.662000000
O    -1.217000000     4.793000000    -3.409000000
H    -1.979000000     4.681000000    -2.841000000
H    -1.180000000     5.735000000    -3.577000000
O     0.455000000     0.785000000     4.573000000
H    -0.018000000     1.100000000     3.803000000
H    -0.142000000     0.158000000     4.981000000
O     4.492000000    -0.122000000    -5.388000000
H     4.198000000     0.170000000    -4.525000000
H     3.693000000    -0.413000000    -5.828000000
O    -1.897000000     2.724000000    -5.560000000
H    -1.900000000     3.383000000    -4.866000000
H    -1.084000000     2.237000000    -5.425000000
O    -2.943000000     0.641000000    -4.089000000
H    -2.387000000     1.032000000    -4.763000000
H    -3.775000000     0.474000000    -4.533000000
O    -4.985000000    -3.468000000     5.853000000
H    -4.600000000    -4.337000000     5.737000000
H    -4.484000000    -2.905000000     5.263000000
O    -1.171000000    -7.038000000     4.281000000
H    -1.214000000    -7.468000000     3.427000000
H    -0.410000000    -7.430000000     4.709000000
O    -2.946000000     5.611000000    -1.392000000
H    -3.757000000     5.988000000    -1.050000000
H    -2.286000000     5.825000000    -0.733000000
O     1.760000000     4.954000000    -2.963000000
H     2.383000000     4.805000000    -2.251000000
H     0.901000000     4.902000000    -2.544000000
O    -6.717000000     1.051000000     1.536000000
H    -7.394000000     1.537000000     2.007000000
H    -6.084000000     1.718000000     1.270000000
O     1.454000000     4.883000000     2.432000000
H     0.692000000     4.583000000     1.936000000
H     2.047000000     4.132000000     2.438000000
O     0.907000000    -3.199000000     7.190000000
H     1.290000000    -3.668000000     6.449000000
H    -0.003000000    -3.050000000     6.935000000
O    -0.664000000     2.298000000     2.448000000
H    -0.199000000     1.684000000     1.880000000
H    -1.145000000     2.865000000     1.845000000
O     3.315000000    -0.856000000    -1.594000000
H     3.713000000     0.009000000    -1.691000000
H     2.790000000    -0.790000000    -0.796000000
O    -3.492000000    -1.919000000    -2.884000000
H    -3.109000000    -1.070000000    -3.104000000
H    -3.043000000    -2.184000000    -2.081000000
O     4.067000000     4.876000000    -1.291000000
H     4.317000000     4.374000000    -0.515000000
H     3.647000000     5.662000000    -0.943000000
O    -2.863000000    -6.563000000    -2.201000000
H    -2.869000000    -6.293000000    -3.120000000
H    -2.869000000    -5.742000000    -1.710000000
O    -5.115000000    -2.314000000     0.454000000
H    -5.647000000    -2.844000000     1.047000000
H    -4.226000000    -2.651000000     0.562000000
O    -5.709000000    -3.193000000    -2.371000000
H    -5.619000000    -2.801000000    -1.502000000
H    -5.017000000    -2.785000000    -2.891000000
O    -5.469000000    -6.535000000     0.351000000
H    -4.539000000    -6.305000000     0.355000000
H    -5.548000000    -7.222000000     1.013000000
O    -3.431000000    -2.413000000     3.904000000
H    -2.659000000    -2.608000000     3.373000000
H    -3.902000000    -1.745000000     3.406000000
O     1.527000000    -1.079000000    -4.863000000
H     1.004000000    -1.342000000    -4.105000000
H     1.443000000    -1.809000000    -5.476000000
O     3.902000000    -1.537000000     1.869000000
H     3.648000000    -0.993000000     2.615000000
H     4.790000000    -1.249000000     1.655000000
O    -3.393000000     2.541000000    -1.510000000
H    -3.313000000     2.053000000    -2.330000000
H    -3.482000000     3.454000000    -1.783000000
O    -0.639000000     6.367000000    -0.091000000
H    -0.361000000     6.770000000    -0.914000000
H    -0.513000000     7.052000000     0.566000000
O    -0.217000000    -5.292000000     2.052000000
H    -0.610000000    -4.420000000     2.084000000
H     0.177000000    -5.409000000     2.916000000
O    -1.297000000    -4.646000000     5.890000000
H    -1.245000000    -5.435000000     5.351000000
H    -2.154000000    -4.272000000     5.685000000
O     4.811000000     4.133000000    -3.803000000
H     5.305000000     4.890000000    -4.120000000
H     4.916000000     4.160000000    -2.852000000
O     4.847000000    -3.763000000     0.379000000
H     5.327000000    -3.210000000    -0.238000000
H     4.569000000    -3.163000000     1.071000000
O     1.306000000     3.262000000    -4.980000000
H     1.064000000     3.847000000    -4.263000000
H     2.249000000     3.392000000    -5.087000000
O    -1.555000000     3.634000000     0.409000000
H    -1.064000000     4.455000000     0.388000000
H    -2.141000000     3.685000000    -0.346000000
O     3.251000000    -0.089000000     4.184000000
H     2.647000000     0.653000000     4.151000000
H     3.147000000    -0.445000000     5.066000000
O     4.462000000     2.590000000    -6.160000000
H     4.616000000     1.661000000    -5.991000000
H     4.739000000     3.029000000    -5.355000000
O    -5.966000000    -0.112000000    -1.279000000
H    -5.994000000     0.674000000    -0.734000000
H    -5.223000000    -0.612000000    -0.940000000
O     0.678000000    -2.093000000    -2.390000000
H     0.332000000    -1.387000000    -1.845000000
H     0.701000000    -2.854000000    -1.810000000
O     5.631000000     0.410000000     2.746000000
H     5.762000000     1.329000000     2.979000000
H     4.846000000     0.151000000     3.227000000
