158
-3016.31131
C     1.079000000     0.675000000    -0.739000000
H     1.779000000     1.251000000    -1.338000000
C     0.214000000     1.327000000     0.163000000
H     0.324000000     2.376000000     0.425000000
C    -0.829000000     0.575000000     0.776000000
H    -1.477000000     1.021000000     1.485000000
C    -0.986000000    -0.792000000     0.443000000
H    -1.725000000    -1.413000000     0.943000000
C    -0.102000000    -1.420000000    -0.490000000
H    -0.073000000    -2.460000000    -0.803000000
C     0.912000000    -0.680000000    -1.091000000
C     1.845000000    -1.287000000    -2.102000000
O     2.716000000    -0.563000000    -2.538000000
O     1.797000000    -2.415000000    -2.488000000
O    -0.769000000    -2.804000000    -3.620000000
H     0.007000000    -2.504000000    -3.147000000
H    -0.471000000    -3.572000000    -4.108000000
O     7.651000000    -2.041000000    -0.684000000
H     6.704000000    -2.086000000    -0.820000000
H     7.758000000    -2.070000000     0.266000000
O    -2.973000000    -1.620000000    -1.974000000
H    -2.889000000    -0.700000000    -2.221000000
H    -2.231000000    -2.051000000    -2.399000000
O     4.465000000     0.136000000    -4.501000000
H     3.939000000    -0.278000000    -3.817000000
H     5.134000000     0.628000000    -4.025000000
O     1.593000000     3.461000000     5.068000000
H     0.808000000     3.474000000     4.522000000
H     1.596000000     2.590000000     5.464000000
O     3.400000000     2.747000000    -6.185000000
H     3.306000000     2.720000000    -5.233000000
H     3.661000000     1.859000000    -6.426000000
O     2.757000000    -0.872000000     1.748000000
H     2.363000000    -0.919000000     0.877000000
H     3.612000000    -1.291000000     1.647000000
O    -1.514000000     1.234000000     6.744000000
H    -2.078000000     0.597000000     7.183000000
H    -2.019000000     1.517000000     5.982000000
O    -5.504000000     0.052000000     5.935000000
H    -5.806000000     0.617000000     6.646000000
H    -4.921000000     0.608000000     5.418000000
O    -5.905000000     0.699000000    -0.594000000
H    -6.572000000     0.550000000     0.076000000
H    -5.074000000     0.636000000    -0.122000000
O     2.018000000     0.568000000     6.162000000
H     2.027000000    -0.254000000     6.652000000
H     2.923000000     0.880000000     6.200000000
O     2.312000000     2.035000000    -3.689000000
H     2.550000000     1.113000000    -3.590000000
H     1.390000000     2.074000000    -3.436000000
O     5.979000000    -3.602000000    -3.242000000
H     5.814000000    -4.448000000    -2.825000000
H     5.556000000    -2.965000000    -2.667000000
O    -3.551000000    -5.393000000     0.440000000
H    -3.535000000    -5.981000000     1.195000000
H    -4.031000000    -5.877000000    -0.231000000
O     2.548000000    -2.309000000    -5.014000000
H     2.314000000    -2.165000000    -4.097000000
H     2.395000000    -3.243000000    -5.156000000
O    -3.504000000     1.228000000     4.474000000
H    -3.321000000     2.122000000     4.186000000
H    -3.760000000     0.766000000     3.676000000
O     2.550000000     5.298000000     2.500000000
H     1.746000000     5.596000000     2.074000000
H     2.282000000     4.533000000     3.010000000
O    -3.128000000     3.502000000     1.529000000
H    -3.372000000     4.188000000     2.150000000
H    -3.912000000     2.958000000     1.452000000
O    -3.860000000    -2.296000000     6.671000000
H    -3.117000000    -2.266000000     6.068000000
H    -4.251000000    -1.424000000     6.615000000
O     0.136000000    -7.270000000    -0.854000000
H     0.519000000    -6.479000000    -1.234000000
H     0.803000000    -7.944000000    -0.983000000
O     2.014000000    -5.106000000    -2.601000000
H     1.955000000    -4.151000000    -2.628000000
H     1.882000000    -5.381000000    -3.509000000
O     0.900000000    -4.872000000     0.558000000
H     0.152000000    -4.433000000     0.155000000
H     0.736000000    -5.804000000     0.414000000
O     7.353000000     0.019000000    -3.995000000
H     7.961000000    -0.693000000    -4.198000000
H     7.048000000    -0.173000000    -3.108000000
O     1.575000000     1.208000000     3.203000000
H     2.025000000     0.966000000     4.012000000
H     1.830000000     0.532000000     2.575000000
O    -4.474000000    -0.135000000     2.260000000
H    -3.757000000    -0.511000000     1.749000000
H    -5.217000000    -0.714000000     2.090000000
O    -1.744000000     5.635000000     6.078000000
H    -1.955000000     5.193000000     5.256000000
H    -0.788000000     5.612000000     6.124000000
O    -5.942000000     3.114000000     2.146000000
H    -6.308000000     3.832000000     2.661000000
H    -6.664000000     2.492000000     2.055000000
O    -0.744000000     3.168000000     3.666000000
H    -1.430000000     3.036000000     3.011000000
H    -0.225000000     2.365000000     3.635000000
O     4.828000000    -1.927000000    -1.459000000
H     4.180000000    -1.424000000    -1.953000000
H     4.382000000    -2.747000000    -1.246000000
O     1.561000000     5.380000000    -1.164000000
H     1.387000000     5.998000000    -1.874000000
H     0.695000000     5.163000000    -0.819000000
O     0.101000000     6.809000000     1.742000000
H    -0.636000000     6.217000000     1.590000000
H    -0.002000000     7.494000000     1.082000000
O     3.847000000     4.092000000    -2.659000000
H     3.407000000     3.364000000    -3.099000000
H     3.201000000     4.797000000    -2.659000000
O     5.373000000     0.279000000     1.232000000
H     4.637000000     0.824000000     0.952000000
H     5.986000000     0.309000000     0.498000000
O    -0.287000000     2.411000000    -3.100000000
H    -0.934000000     3.001000000    -2.715000000
H    -0.265000000     2.652000000    -4.026000000
O    -1.185000000     4.984000000    -0.280000000
H    -1.975000000     5.223000000    -0.766000000
H    -1.487000000     4.350000000     0.371000000
O     1.306000000    -5.017000000    -5.277000000
H     0.400000000    -4.995000000    -5.583000000
H     1.739000000    -5.643000000    -5.858000000
O     0.684000000    -3.266000000     3.042000000
H    -0.221000000    -2.982000000     2.913000000
H     0.891000000    -3.773000000     2.257000000
O    -1.227000000    -4.564000000    -1.183000000
H    -1.292000000    -4.608000000    -2.137000000
H    -1.988000000    -5.052000000    -0.868000000
O     4.871000000    -2.060000000    -6.393000000
H     5.477000000    -1.569000000    -5.838000000
H     4.129000000    -2.257000000    -5.822000000
O    -5.343000000     4.404000000    -1.048000000
H    -5.064000000     3.838000000    -0.327000000
H    -6.291000000     4.478000000    -0.941000000
O     1.067000000    -0.799000000    -7.062000000
H     1.745000000    -0.178000000    -7.330000000
H     1.485000000    -1.332000000    -6.386000000
O     3.592000000    -3.928000000     0.017000000
H     2.724000000    -4.074000000     0.393000000
H     3.696000000    -4.630000000    -0.626000000
O    -1.749000000    -2.295000000     3.677000000
H    -1.473000000    -1.589000000     4.261000000
H    -1.663000000    -3.089000000     4.205000000
O    -4.802000000    -2.854000000     0.132000000
H    -4.280000000    -2.240000000    -0.385000000
H    -4.198000000    -3.568000000     0.338000000
O     3.763000000     2.379000000    -0.109000000
H     2.830000000     2.212000000    -0.244000000
H     4.038000000     2.854000000    -0.893000000
O    -2.524000000     0.468000000    -3.502000000
H    -1.948000000     1.077000000    -3.041000000
H    -1.983000000     0.117000000    -4.210000000
O    -4.049000000     4.362000000     4.062000000
H    -3.734000000     5.260000000     3.961000000
H    -4.983000000     4.411000000     3.859000000
O    -0.313000000    -1.320000000     5.737000000
H     0.410000000    -1.843000000     5.389000000
H    -0.023000000    -0.414000000     5.636000000
