158
-3043.47627
C     1.301000000    -0.053000000     0.585000000
H     2.337000000     0.031000000     0.903000000
C     0.743000000     1.061000000    -0.043000000
H     1.360000000     1.930000000    -0.260000000
C    -0.514000000     0.946000000    -0.583000000
H    -0.970000000     1.690000000    -1.185000000
C    -1.267000000    -0.225000000    -0.435000000
H    -2.200000000    -0.221000000    -0.992000000
C    -0.759000000    -1.341000000     0.251000000
H    -1.271000000    -2.299000000     0.292000000
C     0.504000000    -1.151000000     0.847000000
C     1.250000000    -2.257000000     1.601000000
O     2.450000000    -2.207000000     1.854000000
O     0.575000000    -3.186000000     2.066000000
O     0.928000000     1.314000000     3.935000000
H     0.152000000     1.000000000     3.471000000
H     1.450000000     0.526000000     4.088000000
O    -6.294000000    -2.168000000     0.293000000
H    -6.302000000    -1.286000000    -0.080000000
H    -6.008000000    -2.042000000     1.198000000
O    -3.250000000     1.547000000    -3.243000000
H    -2.976000000     0.761000000    -3.716000000
H    -2.803000000     2.265000000    -3.693000000
O     2.393000000     3.586000000     3.775000000
H     1.666000000     2.964000000     3.782000000
H     2.417000000     3.937000000     4.665000000
O     1.055000000    -3.271000000    -2.820000000
H     1.129000000    -2.352000000    -2.562000000
H     0.159000000    -3.514000000    -2.585000000
O     2.017000000    -5.153000000     0.631000000
H     2.284000000    -4.584000000    -0.091000000
H     1.542000000    -4.576000000     1.229000000
O     0.948000000     2.573000000    -3.644000000
H     1.166000000     3.088000000    -2.867000000
H     0.412000000     3.159000000    -4.178000000
O     5.793000000     2.899000000     0.763000000
H     5.588000000     1.964000000     0.765000000
H     4.954000000     3.328000000     0.933000000
O    -3.788000000     1.157000000     1.487000000
H    -3.998000000     1.580000000     0.654000000
H    -4.476000000     0.502000000     1.603000000
O    -1.031000000     3.223000000     0.969000000
H    -1.613000000     2.492000000     0.761000000
H    -0.638000000     2.983000000     1.809000000
O    -2.915000000    -2.136000000     3.576000000
H    -2.996000000    -2.712000000     2.816000000
H    -3.722000000    -2.277000000     4.071000000
O    -2.838000000     4.899000000     2.729000000
H    -2.438000000     4.216000000     2.191000000
H    -3.641000000     5.133000000     2.262000000
O     6.049000000    -1.388000000    -2.013000000
H     6.652000000    -2.131000000    -2.033000000
H     5.380000000    -1.640000000    -1.377000000
O    -4.023000000    -3.100000000    -1.009000000
H    -4.821000000    -2.668000000    -0.703000000
H    -4.125000000    -3.147000000    -1.959000000
O    -1.389000000     6.593000000    -1.181000000
H    -1.347000000     6.869000000    -0.265000000
H    -2.314000000     6.673000000    -1.413000000
O     6.417000000    -0.092000000     0.985000000
H     5.663000000    -0.582000000     0.657000000
H     6.281000000    -0.048000000     1.931000000
O    -0.771000000    -5.648000000     5.202000000
H    -0.943000000    -5.637000000     4.260000000
H    -1.133000000    -4.821000000     5.521000000
O     0.338000000     4.480000000    -1.126000000
H    -0.124000000     5.295000000    -1.318000000
H     0.029000000     4.228000000    -0.256000000
O     6.577000000    -1.214000000     3.980000000
H     7.462000000    -1.578000000     3.960000000
H     6.017000000    -1.930000000     3.678000000
O     4.826000000    -3.156000000     3.247000000
H     3.991000000    -2.877000000     2.872000000
H     4.589000000    -3.830000000     3.884000000
O    -1.347000000    -2.758000000     5.752000000
H    -1.572000000    -2.560000000     4.843000000
H    -2.173000000    -2.675000000     6.227000000
O    -1.609000000     3.745000000    -5.063000000
H    -1.792000000     2.989000000    -5.621000000
H    -2.470000000     4.119000000    -4.875000000
O    -3.693000000    -4.139000000     1.525000000
H    -4.012000000    -5.040000000     1.485000000
H    -3.935000000    -3.762000000     0.679000000
O     3.147000000    -4.615000000    -1.718000000
H     2.468000000    -4.075000000    -2.122000000
H     3.618000000    -5.000000000    -2.458000000
O     1.129000000    -0.507000000    -2.480000000
H     0.653000000    -0.122000000    -1.744000000
H     0.817000000    -0.023000000    -3.245000000
O     1.477000000    -3.912000000     4.744000000
H     1.123000000    -3.738000000     3.871000000
H     0.773000000    -4.371000000     5.201000000
O     2.864000000     5.169000000    -1.734000000
H     2.613000000     5.639000000    -2.529000000
H     2.056000000     4.752000000    -1.437000000
O    -6.365000000     0.529000000     0.120000000
H    -6.279000000     1.467000000    -0.051000000
H    -6.946000000     0.475000000     0.879000000
O    -4.284000000    -2.787000000    -3.935000000
H    -3.659000000    -2.136000000    -3.617000000
H    -4.670000000    -2.388000000    -4.715000000
O    -4.620000000     5.175000000     0.723000000
H    -4.362000000     4.353000000     0.306000000
H    -4.381000000     5.851000000     0.089000000
O     4.242000000     4.911000000     2.132000000
H     3.418000000     4.547000000     2.456000000
H     4.863000000     4.774000000     2.848000000
O    -1.505000000     0.265000000     3.213000000
H    -1.914000000    -0.504000000     3.611000000
H    -2.017000000     0.426000000     2.421000000
O     3.043000000    -0.749000000     4.083000000
H     2.890000000    -1.334000000     3.341000000
H     3.526000000    -0.011000000     3.710000000
O    -4.082000000     2.896000000    -0.726000000
H    -4.999000000     2.862000000    -0.997000000
H    -3.596000000     2.566000000    -1.481000000
O     4.207000000    -2.222000000    -0.002000000
H     3.573000000    -2.133000000     0.709000000
H     3.886000000    -2.961000000    -0.519000000
O    -5.224000000    -0.403000000    -2.218000000
H    -4.524000000     0.151000000    -2.562000000
H    -5.492000000     0.027000000    -1.405000000
O    -1.183000000    -5.088000000     2.488000000
H    -1.980000000    -4.723000000     2.104000000
H    -0.531000000    -4.394000000     2.391000000
O     3.547000000    -7.450000000     1.472000000
H     4.182000000    -7.108000000     0.843000000
H     2.774000000    -6.896000000     1.359000000
O    -1.350000000     7.003000000     1.619000000
H    -2.002000000     7.688000000     1.767000000
H    -1.703000000     6.236000000     2.069000000
O    -2.213000000    -1.123000000    -3.668000000
H    -1.870000000    -1.449000000    -2.836000000
H    -1.462000000    -1.142000000    -4.261000000
O     2.100000000     0.858000000    -5.272000000
H     1.697000000     1.417000000    -4.608000000
H     2.929000000     0.582000000    -4.881000000
O     0.071000000    -7.444000000     1.321000000
H    -0.383000000    -6.654000000     1.615000000
H    -0.360000000    -8.157000000     1.792000000
O     1.503000000    -1.446000000     6.443000000
H     2.215000000    -1.261000000     5.832000000
H     0.953000000    -2.081000000     5.985000000
O     3.878000000    -5.509000000     4.883000000
H     3.587000000    -6.213000000     5.463000000
H     3.135000000    -4.906000000     4.847000000
O     3.893000000     0.367000000    -2.993000000
H     3.034000000     0.150000000    -2.632000000
H     4.478000000    -0.303000000    -2.638000000
O    -1.661000000    -3.875000000    -2.065000000
H    -2.099000000    -4.485000000    -2.660000000
H    -2.289000000    -3.742000000    -1.355000000
O    -0.021000000    -1.344000000    -5.290000000
H     0.270000000    -0.439000000    -5.404000000
H     0.711000000    -1.872000000    -5.611000000
O     4.427000000     1.462000000     3.300000000
H     5.165000000     1.601000000     3.893000000
H     3.919000000     2.272000000     3.356000000
