158
-2997.35016
C     0.753000000     0.611000000    -1.141000000
H     1.244000000     1.218000000    -1.898000000
C     0.491000000     1.231000000     0.139000000
H     0.752000000     2.247000000     0.423000000
C    -0.249000000     0.519000000     1.082000000
H    -0.502000000     1.054000000     1.983000000
C    -0.659000000    -0.762000000     0.819000000
H    -1.242000000    -1.206000000     1.621000000
C    -0.467000000    -1.328000000    -0.495000000
H    -0.771000000    -2.361000000    -0.645000000
C     0.354000000    -0.708000000    -1.434000000
C     0.523000000    -1.309000000    -2.782000000
O     1.025000000    -0.582000000    -3.617000000
O     0.063000000    -2.380000000    -3.122000000
O    -2.549000000    -2.947000000    -2.794000000
H    -1.614000000    -2.762000000    -2.886000000
H    -2.886000000    -2.925000000    -3.690000000
O     5.943000000    -0.508000000    -5.437000000
H     5.088000000    -0.422000000    -5.015000000
H     6.539000000    -0.012000000    -4.876000000
O    -1.659000000     2.642000000    -1.520000000
H    -1.158000000     3.345000000    -1.107000000
H    -1.196000000     1.841000000    -1.274000000
O    -4.920000000    -2.186000000     0.036000000
H    -4.322000000    -2.914000000     0.202000000
H    -4.493000000    -1.678000000    -0.654000000
O     3.314000000     0.391000000    -4.354000000
H     2.486000000    -0.066000000    -4.203000000
H     3.556000000     0.738000000    -3.496000000
O     1.936000000     3.000000000    -7.271000000
H     1.322000000     2.530000000    -6.707000000
H     1.525000000     3.853000000    -7.414000000
O    -3.369000000     2.561000000    -3.559000000
H    -3.150000000     1.743000000    -4.005000000
H    -2.842000000     2.547000000    -2.760000000
O    -2.622000000    -1.707000000    -7.889000000
H    -3.175000000    -2.471000000    -7.728000000
H    -1.909000000    -1.791000000    -7.256000000
O    -4.202000000    -1.576000000     3.087000000
H    -4.598000000    -0.827000000     2.643000000
H    -3.681000000    -2.008000000     2.410000000
O     0.292000000     1.076000000    -5.567000000
H    -0.616000000     1.075000000    -5.265000000
H     0.745000000     0.486000000    -4.965000000
O     4.622000000    -2.962000000    -3.389000000
H     4.248000000    -2.757000000    -2.532000000
H     3.932000000    -2.736000000    -4.013000000
O    -1.093000000    -2.384000000    -5.674000000
H    -0.442000000    -1.984000000    -5.097000000
H    -0.744000000    -3.255000000    -5.863000000
O    -2.620000000     1.741000000     6.285000000
H    -2.904000000     2.641000000     6.447000000
H    -1.717000000     1.714000000     6.600000000
O    -0.085000000     6.556000000     3.894000000
H    -0.358000000     6.674000000     4.803000000
H    -0.276000000     7.396000000     3.476000000
O     0.165000000     7.494000000     0.716000000
H     0.684000000     6.928000000     0.143000000
H     0.567000000     8.358000000     0.627000000
O    -4.470000000     0.916000000     1.948000000
H    -3.912000000     1.657000000     2.183000000
H    -5.357000000     1.206000000     2.163000000
O     0.051000000    -7.291000000     1.187000000
H    -0.381000000    -6.734000000     0.538000000
H     0.650000000    -7.834000000     0.675000000
O     2.310000000     5.651000000     1.416000000
H     2.776000000     4.870000000     1.716000000
H     1.800000000     5.932000000     2.175000000
O    -1.694000000    -5.814000000    -0.270000000
H    -1.116000000    -5.625000000    -1.009000000
H    -2.420000000    -6.306000000    -0.654000000
O     2.356000000    -4.879000000    -1.624000000
H     1.449000000    -5.063000000    -1.869000000
H     2.684000000    -5.708000000    -1.277000000
O    -0.246000000    -5.065000000    -2.508000000
H    -0.074000000    -4.125000000    -2.561000000
H    -0.661000000    -5.280000000    -3.343000000
O    -3.933000000    -2.825000000    -5.121000000
H    -3.895000000    -3.064000000    -6.047000000
H    -4.306000000    -1.943000000    -5.116000000
O     0.171000000    -4.261000000     3.100000000
H    -0.391000000    -3.581000000     3.472000000
H    -0.435000000    -4.943000000     2.812000000
O     3.762000000     1.273000000    -1.571000000
H     4.540000000     1.332000000    -1.017000000
H     3.074000000     0.958000000    -0.986000000
O    -5.417000000     0.809000000    -0.688000000
H    -4.784000000     0.395000000    -1.275000000
H    -4.940000000     0.923000000     0.134000000
O     2.501000000     0.122000000     4.751000000
H     2.112000000    -0.154000000     5.580000000
H     2.409000000    -0.640000000     4.178000000
O    -3.437000000    -0.706000000    -1.963000000
H    -3.599000000    -0.331000000    -2.828000000
H    -3.070000000    -1.572000000    -2.142000000
O    -4.208000000    -0.400000000     5.578000000
H    -3.947000000    -0.678000000     4.700000000
H    -3.779000000     0.447000000     5.698000000
O     0.237000000     2.088000000     6.802000000
H     0.890000000     2.574000000     6.298000000
H     0.729000000     1.373000000     7.207000000
O     3.593000000    -2.557000000    -0.503000000
H     3.058000000    -3.267000000    -0.857000000
H     3.192000000    -2.352000000     0.342000000
O    -2.481000000    -5.808000000    -4.568000000
H    -3.009000000    -6.135000000    -5.297000000
H    -2.908000000    -4.991000000    -4.311000000
O     0.187000000     3.759000000     3.300000000
H    -0.736000000     3.539000000     3.177000000
H     0.199000000     4.715000000     3.359000000
O     3.825000000     5.242000000    -2.233000000
H     4.501000000     5.732000000    -1.764000000
H     3.947000000     4.335000000    -1.951000000
O     5.360000000     1.547000000     0.865000000
H     4.844000000     1.820000000     1.624000000
H     5.743000000     2.358000000     0.531000000
O    -0.111000000     4.707000000    -0.505000000
H     0.266000000     4.882000000     0.357000000
H    -0.941000000     5.184000000    -0.505000000
O    -2.862000000     2.860000000     2.981000000
H    -2.761000000     3.750000000     2.644000000
H    -3.064000000     2.976000000     3.909000000
O    -0.177000000    -4.861000000    -6.061000000
H    -0.928000000    -5.443000000    -5.948000000
H     0.445000000    -5.370000000    -6.581000000
O    -1.694000000    -2.490000000     4.400000000
H    -2.596000000    -2.282000000     4.645000000
H    -1.247000000    -2.635000000     5.234000000
O     2.140000000    -3.862000000    -5.083000000
H     2.142000000    -3.609000000    -4.160000000
H     1.280000000    -4.260000000    -5.221000000
O    -4.848000000     4.246000000     0.356000000
H    -4.175000000     3.571000000     0.446000000
H    -5.552000000     3.962000000     0.938000000
O     0.860000000    -1.493000000    -7.804000000
H     1.462000000    -0.861000000    -7.411000000
H     0.254000000    -1.718000000    -7.098000000
O     2.862000000     0.375000000    -6.893000000
H     3.123000000     0.503000000    -5.981000000
H     2.745000000     1.261000000    -7.236000000
O     2.021000000    -2.382000000     2.139000000
H     1.482000000    -3.161000000     2.273000000
H     1.402000000    -1.652000000     2.184000000
O    -3.238000000    -3.725000000     1.492000000
H    -2.505000000    -4.209000000     1.113000000
H    -3.334000000    -4.086000000     2.373000000
O     2.425000000     2.766000000     2.227000000
H     2.143000000     1.919000000     1.880000000
H     1.690000000     3.062000000     2.764000000
O    -2.179000000     0.472000000    -4.619000000
H    -2.728000000    -0.090000000    -5.166000000
H    -1.695000000    -0.136000000    -4.061000000
O     4.649000000     1.779000000     3.867000000
H     4.066000000     1.090000000     4.184000000
H     4.115000000     2.573000000     3.884000000
O     1.285000000     6.440000000    -2.387000000
H     1.159000000     5.829000000    -1.662000000
H     2.188000000     6.293000000    -2.670000000
