158
-3042.98628
C     1.350000000     0.284000000     0.393000000
H     2.407000000     0.501000000     0.528000000
C     0.548000000     1.068000000    -0.467000000
H     0.899000000     1.986000000    -0.931000000
C    -0.767000000     0.713000000    -0.688000000
H    -1.310000000     1.417000000    -1.195000000
C    -1.295000000    -0.390000000    -0.086000000
H    -2.311000000    -0.703000000    -0.312000000
C    -0.467000000    -1.246000000     0.670000000
H    -0.837000000    -2.228000000     0.951000000
C     0.874000000    -0.926000000     0.919000000
C     1.859000000    -1.732000000     1.789000000
O     3.070000000    -1.703000000     1.638000000
O     1.379000000    -2.345000000     2.742000000
O    -0.319000000    -5.513000000    -0.005000000
H    -0.023000000    -5.262000000     0.871000000
H    -0.083000000    -6.437000000    -0.082000000
O    -0.808000000     1.172000000     2.935000000
H    -0.714000000     1.614000000     2.091000000
H    -1.360000000     1.758000000     3.453000000
O    -6.122000000    -0.675000000     1.645000000
H    -5.172000000    -0.743000000     1.736000000
H    -6.292000000    -0.903000000     0.731000000
O    -2.009000000     2.525000000    -3.781000000
H    -2.521000000     1.813000000    -3.398000000
H    -1.580000000     2.130000000    -4.541000000
O    -2.668000000    -2.498000000     5.384000000
H    -1.982000000    -3.154000000     5.504000000
H    -2.250000000    -1.804000000     4.875000000
O     1.412000000     2.905000000     2.267000000
H     0.955000000     3.579000000     2.771000000
H     0.734000000     2.520000000     1.712000000
O    -3.798000000    -3.115000000     1.223000000
H    -4.239000000    -3.577000000     1.936000000
H    -3.510000000    -3.809000000     0.630000000
O     0.990000000    -4.891000000     2.371000000
H     1.209000000    -3.960000000     2.404000000
H     1.427000000    -5.268000000     3.135000000
O     4.168000000    -1.268000000    -0.738000000
H     3.786000000    -1.635000000    -1.535000000
H     3.626000000    -1.615000000    -0.030000000
O    -0.710000000     4.844000000    -2.781000000
H    -1.461000000     5.172000000    -2.287000000
H    -1.071000000     4.148000000    -3.331000000
O    -4.472000000     2.700000000     1.629000000
H    -4.179000000     2.683000000     0.717000000
H    -5.399000000     2.466000000     1.587000000
O     3.823000000     5.715000000    -3.456000000
H     3.621000000     4.808000000    -3.224000000
H     3.799000000     6.186000000    -2.624000000
O    -3.059000000     6.235000000    -1.375000000
H    -2.828000000     6.258000000    -0.447000000
H    -3.835000000     5.677000000    -1.415000000
O    -4.009000000     1.046000000     4.403000000
H    -3.726000000     0.482000000     3.683000000
H    -4.902000000     0.760000000     4.595000000
O     1.814000000    -1.766000000     7.326000000
H     2.750000000    -1.860000000     7.504000000
H     1.774000000    -1.294000000     6.494000000
O     4.591000000     2.076000000    -0.638000000
H     5.263000000     1.402000000    -0.527000000
H     4.325000000     2.297000000     0.255000000
O     4.346000000     0.168000000    -4.475000000
H     3.668000000     0.513000000    -3.893000000
H     5.166000000     0.331000000    -4.010000000
O     3.527000000    -5.984000000     1.222000000
H     2.933000000    -5.547000000     0.612000000
H     4.167000000    -5.312000000     1.456000000
O    -4.458000000    -1.394000000    -0.983000000
H    -5.413000000    -1.355000000    -0.930000000
H    -4.208000000    -2.051000000    -0.334000000
O     3.641000000    -3.483000000    -2.946000000
H     4.085000000    -3.907000000    -3.680000000
H     4.103000000    -3.801000000    -2.170000000
O    -1.648000000     3.759000000     0.685000000
H    -2.092000000     3.207000000     0.042000000
H    -2.088000000     3.565000000     1.512000000
O     6.771000000     0.537000000    -1.007000000
H     6.810000000     0.174000000    -1.892000000
H     6.348000000    -0.146000000    -0.486000000
O    -1.614000000    -5.140000000     5.242000000
H    -0.858000000    -5.000000000     4.671000000
H    -1.237000000    -5.454000000     6.064000000
O    -2.671000000     0.076000000    -6.544000000
H    -1.840000000    -0.101000000    -6.103000000
H    -3.327000000    -0.362000000    -6.002000000
O    -1.852000000    -5.557000000    -2.149000000
H    -1.534000000    -5.857000000    -1.298000000
H    -1.345000000    -6.061000000    -2.786000000
O     0.263000000     6.411000000    -0.479000000
H    -0.142000000     5.879000000     0.206000000
H     0.010000000     5.983000000    -1.297000000
O     1.521000000    -6.037000000     4.782000000
H     1.618000000    -6.308000000     5.695000000
H     0.997000000    -6.730000000     4.381000000
O     7.212000000    -1.304000000     1.485000000
H     6.275000000    -1.290000000     1.680000000
H     7.504000000    -2.167000000     1.776000000
O     5.167000000    -3.877000000    -0.737000000
H     5.654000000    -4.342000000    -0.056000000
H     5.267000000    -2.951000000    -0.512000000
O     4.723000000    -3.742000000     2.318000000
H     4.198000000    -3.013000000     1.989000000
H     4.506000000    -3.793000000     3.249000000
O    -0.382000000    -0.760000000     4.617000000
H    -0.370000000     0.028000000     4.073000000
H     0.319000000    -1.307000000     4.262000000
O    -3.256000000    -0.521000000     2.283000000
H    -3.150000000    -1.471000000     2.233000000
H    -2.426000000    -0.170000000     1.960000000
O     3.027000000     6.612000000    -0.861000000
H     2.103000000     6.530000000    -0.628000000
H     3.414000000     7.109000000    -0.140000000
O     2.987000000    -0.776000000     4.881000000
H     2.890000000    -0.648000000     3.937000000
H     2.753000000    -1.693000000     5.023000000
O     5.784000000     0.230000000     4.923000000
H     5.233000000     0.230000000     5.706000000
H     5.241000000    -0.176000000     4.248000000
O     4.804000000     0.066000000     2.468000000
H     4.031000000    -0.456000000     2.254000000
H     4.508000000     0.973000000     2.397000000
O    -4.275000000     4.082000000    -3.062000000
H    -4.679000000     4.655000000    -3.714000000
H    -3.582000000     3.626000000    -3.540000000
O     1.658000000     0.470000000    -3.252000000
H     1.359000000     0.152000000    -4.104000000
H     0.912000000     0.329000000    -2.669000000
O    -3.591000000     2.346000000    -0.967000000
H    -3.940000000     2.961000000    -1.612000000
H    -3.518000000     1.517000000    -1.441000000
O     2.746000000    -3.571000000     4.598000000
H     2.361000000    -3.265000000     3.777000000
H     2.119000000    -4.212000000     4.932000000
O     2.108000000    -5.187000000    -1.095000000
H     2.261000000    -4.744000000    -1.930000000
H     1.248000000    -4.876000000    -0.814000000
O    -3.251000000     0.292000000    -2.822000000
H    -3.598000000    -0.410000000    -2.271000000
H    -2.560000000    -0.126000000    -3.335000000
O     1.490000000     2.483000000    -5.445000000
H     1.237000000     3.335000000    -5.798000000
H     1.576000000     2.630000000    -4.503000000
O     4.574000000    -4.361000000     6.830000000
H     4.015000000    -4.028000000     6.128000000
H     5.212000000    -4.919000000     6.384000000
O     2.741000000     2.855000000    -2.384000000
H     3.433000000     2.658000000    -1.753000000
H     2.271000000     2.028000000    -2.491000000
O    -1.263000000    -2.181000000    -3.584000000
H    -0.357000000    -2.216000000    -3.892000000
H    -1.287000000    -2.788000000    -2.844000000
O    -0.020000000     0.290000000    -5.452000000
H     0.308000000    -0.468000000    -5.936000000
H     0.603000000     0.989000000    -5.653000000
O     4.133000000     2.494000000     2.016000000
H     4.425000000     3.043000000     2.744000000
H     3.186000000     2.630000000     1.979000000
