158
-2997.01198
C     1.338000000    -0.305000000     0.605000000
H     2.214000000    -0.330000000     1.248000000
C     0.618000000     0.892000000     0.657000000
H     1.012000000     1.650000000     1.329000000
C    -0.627000000     1.089000000    -0.035000000
H    -1.172000000     2.029000000     0.022000000
C    -1.019000000    -0.016000000    -0.778000000
H    -1.974000000     0.174000000    -1.262000000
C    -0.294000000    -1.187000000    -0.833000000
H    -0.773000000    -1.990000000    -1.387000000
C     0.848000000    -1.415000000    -0.110000000
C     1.574000000    -2.775000000    -0.123000000
O     2.628000000    -2.938000000     0.443000000
O     1.018000000    -3.717000000    -0.644000000
O     0.685000000    -4.327000000    -3.126000000
H     1.022000000    -4.082000000    -2.264000000
H    -0.238000000    -4.074000000    -3.104000000
O    -0.295000000     3.487000000     3.681000000
H    -0.339000000     2.534000000     3.612000000
H     0.636000000     3.691000000     3.591000000
O    -5.314000000    -0.401000000    -0.657000000
H    -6.159000000    -0.760000000    -0.928000000
H    -5.458000000     0.545000000    -0.618000000
O    -3.199000000     1.954000000    -4.314000000
H    -2.874000000     1.098000000    -4.594000000
H    -2.711000000     2.582000000    -4.847000000
O     1.025000000     5.372000000     0.698000000
H     0.433000000     6.104000000     0.874000000
H     0.550000000     4.600000000     1.005000000
O     0.347000000    -1.108000000    -4.859000000
H     0.612000000    -0.560000000    -4.120000000
H    -0.414000000    -1.591000000    -4.538000000
O     4.511000000    -4.802000000     0.182000000
H     3.678000000    -4.351000000     0.320000000
H     4.754000000    -4.585000000    -0.719000000
O     0.432000000     2.857000000    -3.546000000
H     0.885000000     3.534000000    -3.043000000
H    -0.134000000     3.343000000    -4.145000000
O    -3.475000000     3.367000000     0.666000000
H    -4.420000000     3.369000000     0.821000000
H    -3.389000000     3.437000000    -0.285000000
O    -2.243000000    -4.983000000    -4.420000000
H    -2.784000000    -4.678000000    -5.149000000
H    -1.916000000    -5.836000000    -4.705000000
O    -2.886000000     4.046000000     3.465000000
H    -3.085000000     3.974000000     2.531000000
H    -1.944000000     3.884000000     3.521000000
O    -2.324000000    -2.665000000     3.003000000
H    -2.415000000    -3.086000000     2.149000000
H    -2.643000000    -1.773000000     2.867000000
O    -4.776000000     6.728000000     0.103000000
H    -5.038000000     5.862000000     0.415000000
H    -4.058000000     6.555000000    -0.506000000
O    -6.140000000     4.177000000     1.102000000
H    -6.302000000     5.050000000     1.461000000
H    -6.874000000     4.022000000     0.509000000
O    -3.927000000    -2.257000000    -2.118000000
H    -4.483000000    -1.597000000    -1.704000000
H    -4.210000000    -2.270000000    -3.032000000
O    -6.040000000     1.601000000     2.867000000
H    -6.205000000     2.415000000     2.393000000
H    -6.803000000     1.494000000     3.435000000
O     2.013000000     2.408000000     5.843000000
H     2.677000000     2.325000000     5.159000000
H     2.081000000     3.318000000     6.134000000
O     3.789000000    -3.855000000     2.944000000
H     3.363000000    -4.670000000     3.210000000
H     3.594000000    -3.777000000     2.010000000
O    -4.092000000    -0.415000000     2.191000000
H    -4.773000000     0.219000000     2.415000000
H    -3.925000000    -0.267000000     1.260000000
O     0.237000000    -4.721000000     3.096000000
H    -0.056000000    -4.740000000     2.185000000
H    -0.565000000    -4.829000000     3.608000000
O     0.806000000    -6.406000000    -4.753000000
H     0.543000000    -5.807000000    -4.054000000
H     1.202000000    -5.840000000    -5.416000000
O     7.241000000    -0.445000000     1.385000000
H     7.319000000     0.115000000     2.157000000
H     6.359000000    -0.811000000     1.443000000
O     2.476000000    -6.270000000     4.098000000
H     1.685000000    -5.802000000     3.831000000
H     2.320000000    -7.176000000     3.830000000
O     4.701000000    -1.248000000     1.309000000
H     3.927000000    -1.599000000     0.870000000
H     4.676000000    -1.634000000     2.184000000
O    -2.911000000    -3.300000000     0.311000000
H    -3.510000000    -4.033000000     0.450000000
H    -3.419000000    -2.669000000    -0.198000000
O     2.815000000    -3.134000000    -4.637000000
H     1.920000000    -3.301000000    -4.339000000
H     2.953000000    -3.762000000    -5.346000000
O     1.278000000     0.368000000    -2.748000000
H     0.704000000     0.287000000    -1.986000000
H     1.005000000     1.185000000    -3.167000000
O     1.458000000    -2.343000000     3.302000000
H     2.162000000    -2.754000000     2.801000000
H     0.782000000    -3.018000000     3.364000000
O     1.796000000     5.319000000    -1.905000000
H     1.316000000     5.459000000    -1.089000000
H     2.690000000     5.119000000    -1.626000000
O    -6.269000000     2.049000000    -1.054000000
H    -6.996000000     2.629000000    -0.825000000
H    -5.566000000     2.640000000    -1.323000000
O    -2.604000000     6.451000000    -1.698000000
H    -1.969000000     5.759000000    -1.511000000
H    -3.048000000     6.159000000    -2.494000000
O    -0.743000000     0.616000000     3.857000000
H    -0.205000000     0.631000000     3.066000000
H    -0.663000000    -0.279000000     4.185000000
O    -1.270000000     1.937000000     6.092000000
H    -1.173000000     1.392000000     5.312000000
H    -0.471000000     2.464000000     6.118000000
O     3.221000000     0.904000000     3.568000000
H     4.094000000     0.775000000     3.199000000
H     2.760000000     1.430000000     2.914000000
O    -3.759000000     3.353000000    -2.082000000
H    -4.549000000     3.759000000    -2.436000000
H    -3.413000000     2.830000000    -2.806000000
O     7.265000000    -1.862000000    -1.084000000
H     7.155000000    -1.259000000    -0.348000000
H     6.944000000    -2.702000000    -0.755000000
O    -5.934000000     0.874000000    -4.320000000
H    -5.247000000     1.245000000    -3.766000000
H    -6.422000000     0.292000000    -3.738000000
O    -0.663000000    -5.128000000     0.408000000
H    -1.317000000    -4.576000000    -0.021000000
H     0.173000000    -4.838000000     0.041000000
O     5.724000000    -6.474000000     1.917000000
H     6.659000000    -6.587000000     1.746000000
H     5.468000000    -5.734000000     1.368000000
O    -1.309000000     6.802000000     0.856000000
H    -1.885000000     7.381000000     1.354000000
H    -1.431000000     7.068000000    -0.056000000
O    -2.243000000    -0.097000000    -5.787000000
H    -1.930000000    -0.840000000    -5.271000000
H    -1.596000000     0.000000000    -6.485000000
O     4.864000000    -3.913000000    -2.352000000
H     5.423000000    -3.627000000    -3.075000000
H     4.270000000    -3.177000000    -2.204000000
O    -0.517000000    -7.819000000     0.862000000
H    -0.419000000    -7.016000000     0.351000000
H    -1.278000000    -7.657000000     1.420000000
O     2.502000000    -0.957000000     5.478000000
H     2.729000000    -0.261000000     4.861000000
H     2.218000000    -1.684000000     4.926000000
O     3.846000000    -0.904000000    -3.243000000
H     3.303000000    -0.149000000    -3.016000000
H     3.259000000    -1.485000000    -3.726000000
O    -1.709000000    -2.375000000    -3.901000000
H    -1.801000000    -3.242000000    -4.297000000
H    -2.172000000    -2.443000000    -3.066000000
O    -2.467000000     6.644000000     4.252000000
H    -3.379000000     6.936000000     4.265000000
H    -2.520000000     5.701000000     4.096000000
O     2.400000000     4.214000000     3.348000000
H     3.153000000     3.954000000     3.879000000
H     2.084000000     5.018000000     3.758000000
