158
-3033.18688
C     0.259000000     0.214000000     1.412000000
H     0.323000000     0.510000000     2.456000000
C     0.304000000     1.209000000     0.460000000
H     0.471000000     2.240000000     0.762000000
C     0.047000000     0.886000000    -0.866000000
H     0.152000000     1.672000000    -1.653000000
C    -0.141000000    -0.429000000    -1.285000000
H    -0.300000000    -0.707000000    -2.323000000
C    -0.194000000    -1.400000000    -0.230000000
H    -0.180000000    -2.415000000    -0.621000000
C    -0.027000000    -1.127000000     1.120000000
C    -0.005000000    -2.203000000     2.117000000
O     0.244000000    -2.029000000     3.297000000
O    -0.352000000    -3.316000000     1.767000000
O     4.381000000    -3.733000000    -0.571000000
H     3.565000000    -4.206000000    -0.736000000
H     4.949000000    -4.376000000    -0.146000000
O    -3.269000000    -0.033000000    -2.063000000
H    -3.309000000     0.025000000    -1.108000000
H    -2.346000000     0.108000000    -2.273000000
O    -4.056000000    -1.329000000    -4.416000000
H    -3.997000000    -0.941000000    -3.543000000
H    -3.733000000    -0.647000000    -5.004000000
O    -5.292000000     3.715000000    -0.036000000
H    -4.425000000     3.880000000     0.335000000
H    -5.135000000     3.082000000    -0.737000000
O    -1.121000000    -3.132000000     5.429000000
H    -0.631000000    -2.933000000     4.632000000
H    -1.525000000    -2.300000000     5.677000000
O    -1.422000000     0.397000000    -4.791000000
H    -0.738000000     0.092000000    -5.386000000
H    -1.003000000     1.088000000    -4.278000000
O     3.074000000    -5.308000000     2.436000000
H     3.565000000    -6.104000000     2.232000000
H     2.237000000    -5.421000000     1.986000000
O     3.250000000     1.191000000    -1.736000000
H     3.788000000     1.967000000    -1.579000000
H     2.548000000     1.251000000    -1.088000000
O     2.573000000     5.199000000     3.741000000
H     2.721000000     5.743000000     4.514000000
H     2.288000000     4.356000000     4.092000000
O    -1.731000000     4.518000000     3.793000000
H    -2.465000000     4.063000000     4.205000000
H    -2.074000000     5.387000000     3.585000000
O    -3.864000000     0.942000000     2.950000000
H    -3.100000000     1.145000000     3.490000000
H    -3.527000000     0.926000000     2.055000000
O    -4.704000000     2.346000000    -2.268000000
H    -4.137000000     1.581000000    -2.167000000
H    -5.431000000     2.035000000    -2.808000000
O    -3.140000000    -3.515000000     3.145000000
H    -2.251000000    -3.483000000     2.792000000
H    -3.622000000    -4.070000000     2.532000000
O     2.576000000     4.152000000    -2.220000000
H     1.734000000     4.540000000    -1.983000000
H     3.042000000     4.062000000    -1.389000000
O    -2.314000000    -0.761000000     6.845000000
H    -2.742000000    -1.121000000     7.622000000
H    -2.390000000     0.188000000     6.948000000
O     2.837000000    -2.321000000     3.665000000
H     1.881000000    -2.307000000     3.709000000
H     3.039000000    -3.024000000     3.048000000
O     1.729000000    -3.696000000    -1.751000000
H     1.568000000    -3.937000000    -2.663000000
H     2.247000000    -2.893000000    -1.803000000
O    -5.192000000    -1.452000000     3.075000000
H    -4.352000000    -1.867000000     3.271000000
H    -5.004000000    -0.513000000     3.087000000
O     0.221000000    -1.735000000     7.849000000
H    -0.719000000    -1.737000000     7.670000000
H     0.521000000    -2.599000000     7.566000000
O     3.189000000     4.708000000    -4.787000000
H     3.074000000     4.782000000    -3.840000000
H     4.137000000     4.689000000    -4.913000000
O     1.086000000    -4.050000000     6.867000000
H     1.787000000    -4.652000000     6.615000000
H     0.681000000    -3.793000000     6.039000000
O     3.444000000     2.008000000     2.390000000
H     4.351000000     2.306000000     2.462000000
H     3.489000000     1.065000000     2.547000000
O    -2.857000000     0.845000000     0.554000000
H    -2.037000000     0.530000000     0.174000000
H    -2.772000000     1.798000000     0.550000000
O    -2.472000000     3.587000000     1.060000000
H    -2.261000000     3.414000000     1.977000000
H    -2.167000000     4.482000000     0.909000000
O    -0.675000000    -7.153000000     3.900000000
H    -0.409000000    -7.958000000     3.457000000
H    -0.033000000    -7.042000000     4.601000000
O    -2.503000000     0.252000000    -7.284000000
H    -2.677000000     1.189000000    -7.373000000
H    -2.195000000     0.150000000    -6.383000000
O     0.343000000    -5.721000000     1.734000000
H    -0.132000000    -6.167000000     2.435000000
H     0.089000000    -4.802000000     1.820000000
O     0.615000000     0.142000000     5.017000000
H     0.491000000    -0.655000000     4.501000000
H     1.256000000    -0.103000000     5.684000000
O     1.399000000    -0.517000000    -4.990000000
H     1.223000000    -0.679000000    -5.917000000
H     1.410000000     0.436000000    -4.911000000
O     1.369000000     2.585000000     4.106000000
H     2.007000000     2.336000000     3.437000000
H     1.000000000     1.754000000     4.406000000
O    -1.619000000    -4.202000000    -0.436000000
H    -1.174000000    -3.742000000     0.276000000
H    -0.948000000    -4.774000000    -0.808000000
O     4.539000000     1.591000000    -4.447000000
H     4.307000000     2.176000000    -5.168000000
H     3.807000000     0.976000000    -4.394000000
O    -0.995000000    -4.953000000    -3.153000000
H    -0.966000000    -4.110000000    -3.606000000
H    -1.923000000    -5.094000000    -2.967000000
O    -4.094000000    -3.846000000     5.600000000
H    -3.672000000    -4.559000000     6.079000000
H    -3.725000000    -3.900000000     4.718000000
O     2.399000000     5.861000000     0.355000000
H     2.870000000     5.036000000     0.474000000
H     1.526000000     5.691000000     0.709000000
O    -1.798000000     6.420000000     0.333000000
H    -2.325000000     6.817000000    -0.360000000
H    -2.046000000     6.897000000     1.125000000
O     0.118000000     5.459000000    -1.981000000
H    -0.260000000     6.222000000    -2.418000000
H    -0.116000000     5.571000000    -1.060000000
O    -1.438000000     3.043000000    -4.213000000
H    -2.242000000     3.398000000    -3.836000000
H    -1.468000000     3.305000000    -5.133000000
O     4.781000000    -0.804000000     3.020000000
H     5.224000000    -0.695000000     3.861000000
H     3.939000000    -1.202000000     3.242000000
O     1.802000000    -6.249000000    -0.592000000
H     1.320000000    -6.009000000     0.200000000
H     1.659000000    -5.517000000    -1.191000000
O     0.433000000     5.178000000     2.070000000
H     0.913000000     5.432000000     2.858000000
H    -0.489000000     5.295000000     2.302000000
O     1.397000000     2.143000000    -4.138000000
H     2.177000000     2.510000000    -3.722000000
H     0.852000000     2.904000000    -4.339000000
O    -3.352000000     4.577000000    -2.896000000
H    -3.039000000     5.206000000    -2.246000000
H    -3.651000000     3.828000000    -2.381000000
O     2.985000000    -1.253000000    -3.004000000
H     2.487000000    -1.047000000    -3.796000000
H     2.918000000    -0.464000000    -2.467000000
O    -1.686000000     1.665000000     4.328000000
H    -1.058000000     0.969000000     4.523000000
H    -1.180000000     2.313000000     3.838000000
O     3.787000000     3.604000000     0.179000000
H     3.493000000     3.087000000     0.930000000
H     4.612000000     3.994000000     0.466000000
O    -2.883000000    -6.706000000    -0.245000000
H    -3.366000000    -6.631000000    -1.068000000
H    -2.189000000    -6.050000000    -0.313000000
O     0.425000000     4.042000000     6.406000000
H     0.100000000     3.910000000     5.515000000
H    -0.234000000     4.600000000     6.820000000
