158
-3032.70140
C    -0.496000000    -0.389000000     1.322000000
H    -0.673000000    -0.605000000     2.372000000
C    -0.346000000     0.902000000     0.942000000
H    -0.554000000     1.806000000     1.508000000
C     0.200000000     1.151000000    -0.353000000
H     0.368000000     2.109000000    -0.758000000
C     0.510000000     0.082000000    -1.170000000
H     0.868000000     0.331000000    -2.166000000
C     0.228000000    -1.192000000    -0.781000000
H     0.322000000    -1.935000000    -1.569000000
C    -0.206000000    -1.466000000     0.459000000
C    -0.346000000    -2.827000000     1.026000000
O    -0.656000000    -3.071000000     2.154000000
O    -0.006000000    -3.737000000     0.323000000
O    -4.042000000    -3.071000000    -3.151000000
H    -3.799000000    -3.035000000    -4.076000000
H    -3.287000000    -2.705000000    -2.691000000
O     1.601000000    -5.520000000     1.843000000
H     0.880000000    -4.916000000     1.666000000
H     1.214000000    -6.390000000     1.746000000
O     1.327000000    -3.104000000     4.189000000
H     1.956000000    -2.494000000     3.806000000
H     0.676000000    -3.241000000     3.500000000
O     1.783000000     5.044000000    -3.065000000
H     2.142000000     4.157000000    -3.048000000
H     2.546000000     5.608000000    -3.194000000
O     3.129000000    -1.480000000     2.314000000
H     3.416000000    -2.274000000     1.863000000
H     2.925000000    -0.864000000     1.611000000
O    -1.982000000     3.531000000    -3.462000000
H    -2.529000000     3.631000000    -4.242000000
H    -1.086000000     3.621000000    -3.786000000
O     3.437000000    -0.113000000    -2.496000000
H     2.919000000    -0.570000000    -3.159000000
H     4.306000000    -0.028000000    -2.888000000
O     3.345000000     2.644000000    -2.762000000
H     3.162000000     1.727000000    -2.559000000
H     4.299000000     2.712000000    -2.723000000
O     4.867000000     3.637000000     1.056000000
H     4.361000000     3.318000000     1.803000000
H     4.239000000     4.146000000     0.542000000
O     2.002000000     0.248000000    -6.627000000
H     1.727000000    -0.516000000    -7.134000000
H     1.929000000    -0.031000000    -5.714000000
O    -4.384000000     0.404000000     3.339000000
H    -4.618000000    -0.368000000     2.824000000
H    -4.458000000     0.116000000     4.249000000
O    -2.348000000    -5.410000000     1.530000000
H    -2.251000000    -4.537000000     1.150000000
H    -1.988000000    -5.328000000     2.413000000
O    -0.141000000     6.386000000    -1.301000000
H     0.508000000     7.090000000    -1.275000000
H     0.252000000     5.719000000    -1.863000000
O     4.410000000     5.382000000    -3.227000000
H     4.939000000     5.000000000    -3.928000000
H     4.984000000     5.371000000    -2.461000000
O    -1.050000000    -3.888000000    -5.592000000
H    -1.973000000    -3.685000000    -5.746000000
H    -0.894000000    -3.623000000    -4.686000000
O     2.886000000     5.105000000    -0.160000000
H     2.036000000     5.123000000     0.280000000
H     2.686000000     5.302000000    -1.075000000
O    -1.940000000     7.627000000     0.364000000
H    -1.506000000     7.283000000    -0.417000000
H    -1.946000000     8.576000000     0.236000000
O    -5.426000000     2.355000000     1.756000000
H    -5.428000000     1.743000000     1.021000000
H    -4.958000000     1.893000000     2.452000000
O     3.280000000    -3.693000000    -1.837000000
H     4.102000000    -3.245000000    -2.037000000
H     2.937000000    -3.234000000    -1.071000000
O     3.602000000    -5.009000000     4.099000000
H     2.846000000    -4.422000000     4.089000000
H     3.316000000    -5.775000000     3.600000000
O     1.064000000     1.515000000     4.555000000
H     0.279000000     1.885000000     4.153000000
H     1.759000000     1.679000000     3.918000000
O    -5.120000000    -3.364000000    -0.394000000
H    -4.949000000    -3.112000000    -1.301000000
H    -4.443000000    -4.009000000    -0.192000000
O    -4.121000000     1.640000000    -2.216000000
H    -3.862000000     2.554000000    -2.099000000
H    -4.183000000     1.528000000    -3.165000000
O    -2.846000000    -7.758000000     0.124000000
H    -2.804000000    -6.906000000     0.559000000
H    -2.158000000    -7.722000000    -0.540000000
O     3.219000000     0.319000000     0.041000000
H     2.344000000     0.683000000    -0.098000000
H     3.527000000     0.095000000    -0.837000000
O    -3.341000000     4.337000000    -1.158000000
H    -2.867000000     4.123000000    -1.962000000
H    -2.655000000     4.455000000    -0.500000000
O    -2.168000000    -2.440000000     4.260000000
H    -3.068000000    -2.619000000     3.988000000
H    -1.662000000    -2.468000000     3.448000000
O    -0.786000000    -8.096000000    -1.598000000
H    -0.104000000    -8.738000000    -1.399000000
H    -0.313000000    -7.349000000    -1.964000000
O    -0.708000000     0.128000000    -4.093000000
H    -1.315000000    -0.137000000    -3.401000000
H    -1.042000000     0.973000000    -4.393000000
O     0.687000000    -5.556000000    -1.498000000
H     1.564000000    -5.786000000    -1.190000000
H     0.366000000    -4.924000000    -0.854000000
O     3.891000000    -3.583000000     0.980000000
H     3.298000000    -4.324000000     1.105000000
H     4.766000000    -3.969000000     1.018000000
O     0.240000000     2.573000000    -5.444000000
H     1.149000000     2.294000000    -5.554000000
H    -0.080000000     2.704000000    -6.337000000
O    -1.803000000     5.333000000     4.809000000
H    -1.838000000     4.466000000     4.404000000
H    -2.592000000     5.776000000     4.495000000
O     3.197000000     1.616000000     2.631000000
H     4.047000000     1.270000000     2.903000000
H     3.109000000     1.345000000     1.717000000
O    -5.069000000    -5.489000000     1.899000000
H    -4.976000000    -4.646000000     2.343000000
H    -4.175000000    -5.828000000     1.842000000
O    -2.814000000    -5.179000000     5.619000000
H    -3.412000000    -5.831000000     5.254000000
H    -2.264000000    -4.918000000     4.880000000
O    -1.031000000    -6.500000000     3.746000000
H    -0.990000000    -6.907000000     4.611000000
H    -0.674000000    -7.162000000     3.153000000
O    -2.361000000    -4.005000000    -0.898000000
H    -2.309000000    -4.818000000    -1.400000000
H    -1.485000000    -3.896000000    -0.527000000
O     1.194000000     4.188000000     2.404000000
H     1.174000000     4.659000000     3.237000000
H     1.924000000     3.576000000     2.492000000
O    -0.536000000    -3.067000000     6.287000000
H    -1.361000000    -3.210000000     5.824000000
H     0.140000000    -3.297000000     5.650000000
O     1.972000000    -0.715000000     6.003000000
H     1.200000000    -1.260000000     5.855000000
H     1.741000000     0.135000000     5.628000000
O     1.280000000    -3.919000000    -3.747000000
H     0.783000000    -4.524000000    -3.197000000
H     1.998000000    -3.621000000    -3.188000000
O    -1.210000000     4.685000000     0.848000000
H    -0.886000000     5.387000000     0.284000000
H    -0.465000000     4.461000000     1.404000000
O     1.796000000    -1.118000000    -4.310000000
H     1.025000000    -0.609000000    -4.061000000
H     1.493000000    -2.026000000    -4.309000000
O    -2.461000000     0.574000000     5.733000000
H    -3.374000000     0.391000000     5.952000000
H    -2.099000000    -0.276000000     5.483000000
O    -2.731000000    -0.844000000    -1.993000000
H    -3.294000000    -0.075000000    -1.911000000
H    -3.105000000    -1.481000000    -1.384000000
O    -3.255000000     6.179000000     2.562000000
H    -2.790000000     6.791000000     1.991000000
H    -2.958000000     5.314000000     2.279000000
O    -2.375000000     2.833000000     4.010000000
H    -2.381000000     2.099000000     4.624000000
H    -2.756000000     2.477000000     3.207000000
