158
-3007.92629
C    -0.313000000    -0.206000000     1.529000000
H    -0.588000000    -0.131000000     2.578000000
C     0.107000000     1.003000000     0.931000000
H     0.342000000     1.886000000     1.520000000
C     0.430000000     1.074000000    -0.456000000
H     0.898000000     1.899000000    -0.984000000
C     0.152000000    -0.020000000    -1.222000000
H     0.422000000     0.189000000    -2.254000000
C    -0.316000000    -1.234000000    -0.695000000
H    -0.703000000    -1.912000000    -1.452000000
C    -0.516000000    -1.373000000     0.715000000
C    -1.053000000    -2.666000000     1.252000000
O    -1.424000000    -2.733000000     2.406000000
O    -1.272000000    -3.599000000     0.536000000
O     0.370000000    -5.227000000     2.532000000
H    -0.206000000    -4.626000000     2.059000000
H    -0.105000000    -6.059000000     2.537000000
O    -0.899000000    -3.636000000     4.777000000
H    -1.026000000    -3.353000000     3.872000000
H    -1.081000000    -4.576000000     4.762000000
O     4.055000000     3.571000000     1.714000000
H     3.647000000     2.804000000     2.115000000
H     3.894000000     3.465000000     0.776000000
O    -3.425000000     0.344000000    -1.197000000
H    -3.105000000     1.036000000    -0.618000000
H    -2.936000000     0.467000000    -2.011000000
O     4.149000000    -2.380000000    -1.830000000
H     3.600000000    -3.159000000    -1.750000000
H     4.243000000    -2.249000000    -2.774000000
O     3.728000000     2.084000000    -5.169000000
H     3.327000000     1.230000000    -5.006000000
H     4.489000000     1.891000000    -5.716000000
O     2.780000000    -0.629000000    -5.441000000
H     2.674000000    -1.017000000    -6.310000000
H     3.441000000    -1.174000000    -5.014000000
O     3.004000000    -1.590000000     4.569000000
H     2.067000000    -1.509000000     4.743000000
H     3.367000000    -0.736000000     4.805000000
O    -3.601000000    -1.359000000     3.341000000
H    -2.907000000    -1.792000000     2.845000000
H    -4.345000000    -1.959000000     3.287000000
O    -3.254000000    -6.137000000     2.041000000
H    -2.894000000    -5.441000000     1.490000000
H    -3.953000000    -5.712000000     2.537000000
O     1.118000000     4.971000000    -1.723000000
H     1.871000000     5.547000000    -1.854000000
H     1.091000000     4.430000000    -2.512000000
O     2.172000000     7.581000000    -1.675000000
H     2.625000000     7.630000000    -0.833000000
H     2.024000000     8.494000000    -1.921000000
O     3.388000000     5.041000000    -4.534000000
H     3.246000000     4.115000000    -4.731000000
H     4.234000000     5.244000000    -4.933000000
O     6.285000000     0.678000000     0.840000000
H     6.333000000    -0.198000000     0.458000000
H     5.351000000     0.886000000     0.847000000
O    -3.199000000     1.360000000     3.145000000
H    -3.640000000     0.512000000     3.107000000
H    -3.666000000     1.902000000     2.509000000
O     3.257000000    -4.919000000    -1.072000000
H     2.986000000    -4.304000000    -0.391000000
H     3.250000000    -5.774000000    -0.640000000
O     1.936000000    -3.222000000     0.583000000
H     2.377000000    -2.411000000     0.836000000
H     1.360000000    -3.422000000     1.320000000
O    -0.382000000     4.354000000     4.889000000
H    -0.934000000     5.055000000     4.543000000
H    -0.387000000     4.490000000     5.837000000
O     2.782000000    -0.384000000     0.087000000
H     1.975000000     0.001000000    -0.255000000
H     3.208000000    -0.768000000    -0.679000000
O    -3.253000000     2.434000000     0.305000000
H    -3.484000000     3.342000000     0.503000000
H    -2.527000000     2.237000000     0.897000000
O    -1.757000000    -6.331000000     4.993000000
H    -1.944000000    -6.530000000     4.075000000
H    -2.618000000    -6.285000000     5.408000000
O     3.253000000     6.271000000     2.595000000
H     3.761000000     6.227000000     3.405000000
H     3.560000000     5.526000000     2.079000000
O    -2.635000000    -7.100000000    -0.943000000
H    -1.708000000    -7.331000000    -0.877000000
H    -2.996000000    -7.737000000    -1.559000000
O     6.435000000     1.021000000    -3.029000000
H     6.612000000     1.538000000    -3.815000000
H     6.667000000     1.601000000    -2.304000000
O    -1.445000000    -1.241000000     7.864000000
H    -2.089000000    -1.860000000     7.520000000
H    -1.224000000    -0.685000000     7.116000000
O    -3.858000000    -2.105000000    -5.272000000
H    -4.105000000    -2.207000000    -4.353000000
H    -4.451000000    -1.433000000    -5.607000000
O    -3.614000000     3.840000000    -2.637000000
H    -3.160000000     3.974000000    -1.805000000
H    -4.425000000     4.341000000    -2.551000000
O    -0.286000000    -4.898000000    -1.776000000
H    -0.131000000    -4.273000000    -1.068000000
H    -1.137000000    -5.287000000    -1.571000000
O     2.091000000    -5.839000000     4.705000000
H     1.527000000    -5.573000000     3.979000000
H     1.696000000    -6.648000000     5.031000000
O     0.226000000     3.277000000    -3.686000000
H     0.567000000     2.800000000    -4.443000000
H     0.147000000     2.614000000    -3.001000000
O    -1.432000000     7.042000000     2.295000000
H    -1.267000000     6.595000000     1.466000000
H    -2.058000000     7.732000000     2.075000000
O     3.439000000     0.941000000     2.409000000
H     2.728000000     0.732000000     3.014000000
H     3.213000000     0.477000000     1.603000000
O    -0.756000000    -1.033000000    -6.284000000
H    -0.761000000    -1.984000000    -6.397000000
H    -1.266000000    -0.702000000    -7.024000000
O    -3.230000000    -4.526000000    -0.981000000
H    -3.058000000    -5.451000000    -0.803000000
H    -2.496000000    -4.064000000    -0.577000000
O     0.964000000     4.614000000     2.497000000
H     1.774000000     5.117000000     2.581000000
H     0.704000000     4.426000000     3.399000000
O    -0.400000000    -5.052000000     7.271000000
H    -0.452000000    -5.654000000     6.528000000
H    -0.313000000    -4.186000000     6.872000000
O    -1.271000000     6.427000000    -3.957000000
H    -1.475000000     5.545000000    -3.646000000
H    -0.316000000     6.479000000    -3.918000000
O     0.427000000    -1.234000000     5.414000000
H     0.159000000    -2.080000000     5.054000000
H    -0.361000000    -0.692000000     5.363000000
O    -2.197000000     0.603000000    -3.869000000
H    -2.020000000     1.539000000    -3.770000000
H    -1.353000000     0.224000000    -4.112000000
O    -0.057000000    -3.996000000    -4.468000000
H    -0.679000000    -3.293000000    -4.654000000
H    -0.172000000    -4.177000000    -3.535000000
O    -1.286000000    -7.707000000     2.581000000
H    -1.288000000    -8.649000000     2.409000000
H    -2.128000000    -7.400000000     2.245000000
O    -0.611000000     5.628000000     0.147000000
H    -0.189000000     5.471000000    -0.698000000
H     0.005000000     5.278000000     0.791000000
O     0.581000000     0.561000000    -4.606000000
H     1.413000000     0.097000000    -4.698000000
H    -0.038000000     0.048000000    -5.126000000
O    -1.752000000     0.220000000     5.150000000
H    -2.353000000     0.936000000     4.941000000
H    -2.096000000    -0.530000000     4.665000000
O     0.935000000     1.622000000     4.287000000
H     0.823000000     2.185000000     5.053000000
H     0.045000000     1.365000000     4.046000000
O    -3.728000000    -2.281000000    -2.468000000
H    -3.378000000    -1.554000000    -1.954000000
H    -3.669000000    -3.037000000    -1.884000000
O    -3.253000000     5.111000000     0.055000000
H    -3.208000000     5.749000000    -0.656000000
H    -2.364000000     5.084000000     0.409000000
O    -6.121000000    -2.535000000     2.032000000
H    -6.712000000    -1.858000000     2.361000000
H    -6.618000000    -2.970000000     1.339000000
