158
-3044.90480
C    -0.202000000    -0.147000000     1.436000000
H    -0.399000000    -0.149000000     2.505000000
C     0.035000000     1.114000000     0.829000000
H    -0.040000000     2.064000000     1.351000000
C     0.232000000     1.074000000    -0.560000000
H     0.339000000     2.030000000    -1.101000000
C     0.249000000    -0.150000000    -1.248000000
H     0.356000000    -0.152000000    -2.330000000
C     0.066000000    -1.349000000    -0.631000000
H     0.088000000    -2.276000000    -1.197000000
C    -0.265000000    -1.364000000     0.714000000
C    -0.461000000    -2.654000000     1.457000000
O    -0.459000000    -2.641000000     2.666000000
O    -0.605000000    -3.723000000     0.815000000
O    -2.964000000     5.348000000    -4.299000000
H    -2.127000000     5.802000000    -4.395000000
H    -2.831000000     4.753000000    -3.562000000
O    -1.059000000     1.522000000     5.864000000
H    -1.598000000     2.206000000     6.261000000
H    -1.077000000     1.716000000     4.927000000
O     1.393000000    -2.711000000     4.494000000
H     0.625000000    -2.738000000     3.924000000
H     1.395000000    -3.561000000     4.935000000
O    -1.729000000    -5.719000000    -0.545000000
H    -1.183000000    -5.159000000    -1.097000000
H    -1.484000000    -5.486000000     0.350000000
O     3.471000000    -1.083000000    -3.186000000
H     2.613000000    -0.770000000    -3.471000000
H     3.518000000    -0.844000000    -2.261000000
O     3.613000000     3.367000000    -2.610000000
H     4.146000000     3.952000000    -2.071000000
H     3.527000000     3.823000000    -3.447000000
O     4.776000000     1.724000000    -4.520000000
H     4.457000000     0.821000000    -4.505000000
H     4.178000000     2.198000000    -3.942000000
O    -1.947000000     5.440000000    -1.007000000
H    -1.631000000     5.968000000    -1.740000000
H    -1.870000000     4.536000000    -1.312000000
O    -3.403000000    -1.029000000    -4.412000000
H    -3.449000000    -0.253000000    -3.854000000
H    -3.649000000    -1.753000000    -3.836000000
O    -0.997000000    -7.636000000     1.722000000
H    -1.104000000    -7.516000000     0.778000000
H    -1.836000000    -7.364000000     2.094000000
O    -2.969000000    -5.766000000     2.653000000
H    -2.919000000    -6.227000000     3.490000000
H    -3.840000000    -5.368000000     2.651000000
O    -0.291000000     5.899000000    -3.893000000
H    -0.456000000     6.737000000    -3.461000000
H     0.465000000     6.066000000    -4.457000000
O    -1.937000000     3.083000000    -2.922000000
H    -1.984000000     3.063000000    -3.878000000
H    -2.400000000     2.293000000    -2.643000000
O    -3.534000000    -3.166000000    -0.004000000
H    -2.650000000    -3.494000000     0.161000000
H    -4.075000000    -3.592000000     0.661000000
O     1.263000000     0.031000000     4.965000000
H     1.444000000    -0.901000000     4.844000000
H     0.350000000     0.062000000     5.252000000
O    -2.966000000     6.279000000     1.615000000
H    -3.156000000     5.493000000     2.127000000
H    -2.427000000     5.967000000     0.888000000
O    -3.998000000     1.356000000    -3.006000000
H    -4.839000000     1.651000000    -3.354000000
H    -4.211000000     0.973000000    -2.155000000
O    -4.785000000    -0.742000000     0.974000000
H    -4.503000000    -1.474000000     0.427000000
H    -4.178000000    -0.034000000     0.760000000
O    -4.237000000    -3.113000000    -2.595000000
H    -3.816000000    -3.204000000    -1.739000000
H    -3.802000000    -3.764000000    -3.146000000
O    -2.553000000    -4.775000000    -3.976000000
H    -1.716000000    -4.653000000    -3.527000000
H    -2.802000000    -5.677000000    -3.777000000
O     3.313000000     0.294000000     0.109000000
H     2.472000000     0.501000000     0.516000000
H     3.312000000    -0.660000000     0.032000000
O     1.234000000     4.773000000    -1.525000000
H     1.547000000     3.993000000    -1.983000000
H     0.772000000     5.276000000    -2.197000000
O    -4.393000000     0.123000000     3.535000000
H    -3.833000000    -0.566000000     3.893000000
H    -4.516000000    -0.121000000     2.617000000
O     2.368000000     4.569000000     0.899000000
H     1.632000000     4.627000000     1.508000000
H     1.997000000     4.817000000     0.052000000
O     2.259000000    -4.210000000    -4.302000000
H     2.892000000    -4.446000000    -4.979000000
H     2.763000000    -3.698000000    -3.670000000
O     1.347000000    -5.059000000    -0.332000000
H     0.680000000    -4.540000000     0.117000000
H     1.770000000    -5.561000000     0.365000000
O     4.336000000     5.612000000    -1.076000000
H     3.939000000     5.248000000    -0.284000000
H     5.273000000     5.448000000    -0.972000000
O    -0.193000000    -5.225000000     3.648000000
H    -0.723000000    -5.811000000     3.107000000
H    -0.196000000    -4.393000000     3.174000000
O    -0.097000000     4.995000000     2.378000000
H    -1.016000000     4.725000000     2.384000000
H     0.198000000     4.860000000     3.278000000
O    -4.270000000    -6.246000000    -1.077000000
H    -3.382000000    -6.232000000    -0.720000000
H    -4.677000000    -5.447000000    -0.740000000
O     0.389000000     3.862000000     5.053000000
H     1.251000000     3.507000000     4.836000000
H     0.172000000     3.465000000     5.896000000
O     4.079000000    -0.098000000     3.700000000
H     4.413000000     0.744000000     3.391000000
H     3.151000000     0.062000000     3.874000000
O     0.911000000     2.849000000    -3.549000000
H     1.050000000     1.927000000    -3.329000000
H    -0.041000000     2.945000000    -3.584000000
O    -2.340000000    -1.744000000     4.380000000
H    -1.654000000    -2.214000000     3.907000000
H    -2.012000000    -1.679000000     5.277000000
O     0.721000000     3.745000000    -6.206000000
H     0.787000000     3.752000000    -5.251000000
H    -0.158000000     3.409000000    -6.383000000
O     3.141000000    -2.491000000    -0.094000000
H     3.183000000    -2.728000000     0.833000000
H     2.782000000    -3.268000000    -0.524000000
O     0.575000000     6.770000000     0.333000000
H     0.753000000     6.090000000    -0.317000000
H     0.296000000     6.290000000     1.112000000
O    -2.442000000     3.359000000     2.583000000
H    -3.050000000     2.647000000     2.381000000
H    -2.360000000     3.341000000     3.536000000
O     3.812000000     3.405000000     4.659000000
H     3.647000000     3.101000000     3.766000000
H     3.557000000     2.668000000     5.214000000
O     1.000000000    -0.354000000    -4.808000000
H     0.108000000    -0.010000000    -4.843000000
H     1.294000000    -0.351000000    -5.719000000
O    -0.038000000    -4.622000000    -2.606000000
H     0.638000000    -4.880000000    -1.979000000
H     0.450000000    -4.305000000    -3.366000000
O     2.266000000    -6.436000000     1.957000000
H     1.594000000    -6.185000000     2.590000000
H     2.723000000    -7.168000000     2.371000000
O     4.040000000    -2.751000000     5.252000000
H     4.564000000    -2.393000000     4.536000000
H     3.141000000    -2.734000000     4.924000000
O     3.422000000     2.571000000     2.290000000
H     3.209000000     3.378000000     1.821000000
H     3.876000000     2.031000000     1.643000000
O    -1.661000000    -5.232000000     6.046000000
H    -1.134000000    -5.145000000     5.252000000
H    -2.359000000    -4.585000000     5.943000000
O    -1.459000000     0.640000000    -5.137000000
H    -1.815000000     1.487000000    -5.404000000
H    -2.212000000     0.048000000    -5.153000000
O     5.030000000     1.901000000    -0.905000000
H     4.543000000     1.192000000    -0.485000000
H     4.454000000     2.203000000    -1.608000000
O    -2.796000000     1.097000000     0.031000000
H    -2.953000000     2.001000000    -0.240000000
H    -1.870000000     1.078000000     0.275000000
