158
-3013.78323
C     0.070000000    -0.497000000     1.410000000
H     0.097000000    -0.714000000     2.475000000
C     0.245000000     0.802000000     1.031000000
H     0.674000000     1.529000000     1.716000000
C     0.117000000     1.130000000    -0.283000000
H     0.394000000     2.129000000    -0.569000000
C    -0.099000000     0.250000000    -1.293000000
H    -0.158000000     0.664000000    -2.296000000
C    -0.308000000    -1.067000000    -0.905000000
H    -0.528000000    -1.787000000    -1.690000000
C    -0.196000000    -1.478000000     0.430000000
C    -0.400000000    -2.909000000     0.793000000
O    -0.324000000    -3.130000000     1.999000000
O    -0.670000000    -3.753000000     0.010000000
O    -1.320000000     1.446000000     5.551000000
H    -1.362000000     1.156000000     6.462000000
H    -1.673000000     0.711000000     5.049000000
O    -0.121000000    -3.544000000     4.922000000
H    -0.083000000    -3.306000000     3.996000000
H    -0.196000000    -4.498000000     4.922000000
O     2.809000000    -2.586000000     2.494000000
H     2.955000000    -1.844000000     1.907000000
H     2.663000000    -3.329000000     1.909000000
O     4.701000000     4.689000000    -1.072000000
H     3.991000000     5.102000000    -1.565000000
H     5.318000000     4.395000000    -1.743000000
O     4.349000000     1.785000000    -4.942000000
H     4.071000000     1.974000000    -5.839000000
H     3.604000000     1.326000000    -4.553000000
O    -2.951000000     2.957000000    -0.812000000
H    -2.443000000     2.146000000    -0.798000000
H    -3.115000000     3.122000000    -1.741000000
O    -3.222000000    -2.382000000    -4.619000000
H    -2.870000000    -2.201000000    -3.748000000
H    -2.451000000    -2.420000000    -5.186000000
O     2.617000000     7.355000000    -0.732000000
H     3.328000000     7.996000000    -0.752000000
H     2.660000000     6.923000000    -1.585000000
O    -3.258000000    -6.332000000     2.541000000
H    -3.450000000    -7.188000000     2.923000000
H    -4.092000000    -5.862000000     2.576000000
O    -3.207000000     3.842000000    -3.360000000
H    -3.722000000     4.524000000    -3.792000000
H    -3.556000000     3.022000000    -3.709000000
O    -1.284000000    -6.308000000     0.418000000
H    -1.129000000    -5.374000000     0.273000000
H    -1.644000000    -6.356000000     1.304000000
O     2.370000000    -2.556000000     5.147000000
H     2.523000000    -2.681000000     4.211000000
H     1.475000000    -2.867000000     5.287000000
O    -2.922000000     4.694000000     1.308000000
H    -2.551000000     4.097000000     1.958000000
H    -3.008000000     4.162000000     0.517000000
O    -4.485000000     1.384000000    -3.913000000
H    -5.379000000     1.237000000    -4.221000000
H    -4.343000000     0.702000000    -3.256000000
O    -2.659000000     1.033000000    -6.147000000
H    -3.329000000     1.118000000    -5.469000000
H    -2.603000000     1.905000000    -6.539000000
O    -3.618000000    -4.075000000    -0.448000000
H    -2.818000000    -3.601000000    -0.224000000
H    -4.081000000    -4.170000000     0.384000000
O    -4.035000000    -6.939000000    -1.094000000
H    -3.581000000    -6.399000000    -0.447000000
H    -3.362000000    -7.155000000    -1.739000000
O     3.289000000    -0.523000000     0.093000000
H     2.408000000    -0.156000000     0.018000000
H     3.671000000    -0.409000000    -0.777000000
O    -1.221000000     5.470000000    -4.757000000
H    -1.973000000     4.878000000    -4.771000000
H    -1.244000000     5.866000000    -3.886000000
O    -2.598000000    -0.950000000     3.736000000
H    -2.630000000    -0.511000000     2.887000000
H    -2.568000000    -1.883000000     3.523000000
O     4.291000000     3.552000000     1.459000000
H     3.942000000     4.436000000     1.573000000
H     4.561000000     3.517000000     0.541000000
O    -1.439000000     7.303000000    -2.172000000
H    -2.302000000     7.289000000    -1.757000000
H    -0.824000000     7.174000000    -1.450000000
O     1.372000000    -4.304000000    -1.832000000
H     0.627000000    -3.955000000    -1.341000000
H     1.350000000    -5.246000000    -1.663000000
O     2.719000000    -4.172000000     0.254000000
H     2.231000000    -3.961000000    -0.543000000
H     3.147000000    -5.005000000     0.058000000
O    -4.397000000    -0.928000000    -2.140000000
H    -4.051000000    -1.497000000    -1.451000000
H    -5.242000000    -0.631000000    -1.803000000
O    -0.106000000    -6.277000000     5.097000000
H    -0.050000000    -6.179000000     4.147000000
H    -0.487000000    -7.145000000     5.227000000
O     0.585000000    -5.577000000     2.522000000
H     0.585000000    -5.969000000     1.649000000
H     0.350000000    -4.661000000     2.373000000
O    -0.687000000    -3.062000000    -5.602000000
H    -1.360000000    -3.729000000    -5.742000000
H     0.140000000    -3.534000000    -5.697000000
O    -0.972000000     6.199000000     2.374000000
H    -1.778000000     5.702000000     2.230000000
H    -0.429000000     5.625000000     2.913000000
O     0.794000000     4.467000000     3.877000000
H     1.390000000     3.732000000     4.019000000
H     0.422000000     4.645000000     4.741000000
O    -2.734000000    -3.483000000     2.833000000
H    -1.821000000    -3.331000000     2.589000000
H    -2.854000000    -4.428000000     2.732000000
O    -2.117000000    -2.895000000     6.828000000
H    -2.716000000    -2.857000000     6.082000000
H    -1.294000000    -3.213000000     6.459000000
O     3.775000000     6.201000000     1.434000000
H     3.349000000     6.340000000     0.589000000
H     4.125000000     7.060000000     1.671000000
O     0.095000000     2.414000000    -5.874000000
H    -0.112000000     2.892000000    -5.071000000
H     0.306000000     1.528000000    -5.578000000
O     2.482000000    -2.549000000    -3.395000000
H     2.063000000    -3.179000000    -2.808000000
H     2.448000000    -2.966000000    -4.256000000
O     0.237000000     7.834000000     0.193000000
H     1.139000000     7.773000000    -0.121000000
H     0.043000000     6.963000000     0.538000000
O    -1.755000000     3.019000000     3.305000000
H    -2.073000000     2.644000000     4.126000000
H    -0.839000000     3.238000000     3.481000000
O     2.701000000     5.713000000    -3.112000000
H     2.713000000     5.041000000    -3.794000000
H     2.300000000     6.474000000    -3.531000000
O     4.228000000     2.357000000     5.105000000
H     4.170000000     1.742000000     4.374000000
H     3.367000000     2.318000000     5.520000000
O     2.117000000     0.161000000    -4.127000000
H     1.187000000     0.042000000    -4.320000000
H     2.317000000    -0.520000000    -3.486000000
O    -2.054000000    -7.055000000    -3.168000000
H    -1.715000000    -7.738000000    -3.747000000
H    -1.855000000    -6.236000000    -3.622000000
O     0.915000000    -7.153000000    -0.876000000
H     1.466000000    -7.563000000    -0.209000000
H     0.063000000    -7.050000000    -0.452000000
O     2.761000000    -6.108000000     4.341000000
H     2.399000000    -6.773000000     4.927000000
H     2.077000000    -5.967000000     3.687000000
O     4.946000000     0.995000000     2.232000000
H     4.824000000     1.919000000     2.014000000
H     4.263000000     0.540000000     1.740000000
O     1.475000000     2.556000000     5.923000000
H     0.589000000     2.237000000     5.751000000
H     1.427000000     2.934000000     6.802000000
O    -4.762000000    -3.426000000     4.585000000
H    -3.987000000    -3.338000000     4.029000000
H    -5.466000000    -3.656000000     3.979000000
O    -0.408000000    -0.439000000    -5.070000000
H    -1.180000000     0.075000000    -5.308000000
H    -0.660000000    -1.345000000    -5.246000000
O    -3.166000000     1.335000000     1.645000000
H    -3.559000000     2.036000000     1.126000000
H    -2.344000000     1.706000000     1.966000000
