158
-3006.89319
C     0.478000000     1.049000000     0.946000000
H     0.874000000     1.857000000     1.555000000
C     0.518000000     1.194000000    -0.426000000
H     0.990000000     2.069000000    -0.867000000
C    -0.027000000     0.120000000    -1.212000000
H    -0.010000000     0.181000000    -2.290000000
C    -0.511000000    -1.014000000    -0.559000000
H    -1.070000000    -1.825000000    -1.019000000
C    -0.616000000    -1.110000000     0.794000000
H    -1.076000000    -2.009000000     1.196000000
C    -0.122000000    -0.085000000     1.609000000
C    -0.045000000    -0.189000000     3.054000000
O     0.032000000     0.765000000     3.759000000
O    -0.137000000    -1.322000000     3.477000000
O    -1.129000000    -6.518000000     2.392000000
H    -1.619000000    -6.049000000     1.717000000
H    -0.905000000    -5.847000000     3.036000000
O     0.019000000    -2.917000000     5.941000000
H     0.549000000    -2.227000000     6.340000000
H     0.015000000    -2.707000000     5.007000000
O     1.059000000    -4.984000000    -5.637000000
H     1.461000000    -4.183000000    -5.972000000
H     0.186000000    -4.712000000    -5.352000000
O    -2.194000000    -4.366000000     1.141000000
H    -2.743000000    -4.085000000     0.409000000
H    -1.298000000    -4.215000000     0.841000000
O    -3.752000000    -4.386000000     3.231000000
H    -3.082000000    -4.415000000     2.547000000
H    -3.680000000    -5.231000000     3.673000000
O    -2.648000000     1.528000000     2.700000000
H    -2.595000000     2.249000000     2.073000000
H    -1.745000000     1.393000000     2.987000000
O    -0.401000000     3.312000000     3.461000000
H    -0.094000000     2.446000000     3.730000000
H     0.371000000     3.733000000     3.084000000
O     2.785000000     0.749000000     4.272000000
H     1.839000000     0.749000000     4.127000000
H     2.916000000     0.142000000     5.001000000
O     3.757000000    -1.408000000    -2.314000000
H     4.188000000    -1.381000000    -1.460000000
H     4.340000000    -1.936000000    -2.860000000
O    -1.849000000     0.850000000     5.822000000
H    -1.422000000     1.432000000     6.451000000
H    -1.203000000     0.734000000     5.125000000
O     2.121000000     4.028000000    -2.821000000
H     1.225000000     3.749000000    -2.630000000
H     2.165000000     4.928000000    -2.499000000
O    -5.686000000    -2.931000000     1.734000000
H    -4.840000000    -2.576000000     1.460000000
H    -5.462000000    -3.686000000     2.279000000
O     2.920000000     4.017000000     2.052000000
H     2.410000000     4.619000000     2.593000000
H     3.483000000     3.555000000     2.673000000
O    -2.948000000    -1.678000000     3.835000000
H    -2.036000000    -1.430000000     3.686000000
H    -2.985000000    -2.605000000     3.598000000
O     1.783000000    -2.212000000    -6.488000000
H     2.599000000    -1.755000000    -6.285000000
H     1.127000000    -1.788000000    -5.936000000
O     3.578000000     0.595000000    -4.100000000
H     3.693000000    -0.258000000    -3.682000000
H     3.988000000     1.214000000    -3.497000000
O     2.598000000    -2.750000000     3.944000000
H     1.983000000    -2.255000000     4.485000000
H     2.048000000    -3.360000000     3.452000000
O     1.481000000    -3.232000000    -2.270000000
H     2.237000000    -2.656000000    -2.378000000
H     0.754000000    -2.749000000    -2.663000000
O     4.155000000     4.559000000    -0.208000000
H     3.668000000     4.457000000     0.610000000
H     3.693000000     5.252000000    -0.678000000
O     1.289000000     5.478000000     3.617000000
H     0.771000000     6.214000000     3.291000000
H     0.907000000     5.275000000     4.471000000
O     0.009000000    -4.488000000    -0.172000000
H     0.547000000    -4.232000000    -0.921000000
H    -0.725000000    -4.968000000    -0.557000000
O    -1.703000000     0.124000000    -4.668000000
H    -1.980000000     0.523000000    -5.493000000
H    -1.241000000     0.824000000    -4.207000000
O    -0.672000000     4.433000000    -2.387000000
H    -0.343000000     5.270000000    -2.714000000
H    -1.621000000     4.550000000    -2.342000000
O    -3.618000000    -0.905000000     1.200000000
H    -3.465000000    -0.244000000     1.875000000
H    -3.462000000    -0.445000000     0.375000000
O    -1.486000000    -4.418000000    -4.472000000
H    -1.576000000    -4.994000000    -3.713000000
H    -2.345000000    -4.442000000    -4.894000000
O     5.814000000     1.269000000    -0.092000000
H     5.353000000     1.544000000    -0.885000000
H     5.125000000     0.938000000     0.483000000
O    -1.394000000    -5.946000000    -2.047000000
H    -1.831000000    -6.626000000    -1.535000000
H    -0.558000000    -6.336000000    -2.300000000
O     4.232000000     3.064000000     4.398000000
H     4.801000000     3.067000000     5.167000000
H     3.605000000     2.361000000     4.566000000
O    -3.553000000    -0.909000000    -2.894000000
H    -3.867000000    -0.184000000    -2.354000000
H    -2.728000000    -0.594000000    -3.262000000
O    -3.380000000     3.125000000    -5.204000000
H    -3.937000000     2.992000000    -4.437000000
H    -3.792000000     3.849000000    -5.676000000
O    -0.248000000    -1.982000000    -4.459000000
H    -0.899000000    -1.290000000    -4.580000000
H    -0.764000000    -2.769000000    -4.285000000
O    -4.002000000     2.635000000     5.781000000
H    -3.551000000     3.194000000     5.149000000
H    -3.422000000     1.881000000     5.890000000
O     1.786000000    -4.798000000     2.175000000
H     2.649000000    -4.740000000     1.765000000
H     1.173000000    -4.576000000     1.475000000
O    -1.581000000    -2.410000000     8.115000000
H    -2.458000000    -2.660000000     7.826000000
H    -1.029000000    -2.536000000     7.343000000
O     0.247000000     0.531000000    -8.350000000
H     0.352000000     0.083000000    -7.511000000
H     0.148000000     1.455000000    -8.117000000
O     4.301000000     2.806000000    -2.374000000
H     3.482000000     3.151000000    -2.730000000
H     4.526000000     3.407000000    -1.664000000
O    -2.306000000     4.953000000     4.706000000
H    -2.024000000     4.792000000     5.606000000
H    -1.681000000     4.466000000     4.169000000
O     1.193000000     1.733000000     7.200000000
H     1.888000000     2.389000000     7.150000000
H     0.382000000     2.242000000     7.178000000
O    -2.795000000     3.341000000     0.664000000
H    -3.496000000     3.959000000     0.872000000
H    -2.334000000     3.740000000    -0.074000000
O    -4.837000000    -2.953000000    -4.178000000
H    -5.126000000    -2.877000000    -5.088000000
H    -4.190000000    -2.255000000    -4.074000000
O    -3.738000000    -3.611000000    -1.208000000
H    -3.649000000    -2.796000000    -1.701000000
H    -3.504000000    -4.297000000    -1.834000000
O     1.866000000    -0.865000000     6.986000000
H     2.160000000    -1.265000000     7.804000000
H     1.474000000    -0.034000000     7.253000000
O     1.239000000     0.587000000    -5.412000000
H     0.929000000     1.446000000    -5.125000000
H     2.099000000     0.493000000    -5.003000000
O    -2.722000000     1.429000000    -7.255000000
H    -2.864000000     2.080000000    -6.568000000
H    -2.451000000     1.940000000    -8.017000000
O    -0.740000000     3.330000000    -4.997000000
H    -0.592000000     3.845000000    -4.204000000
H    -1.673000000     3.437000000    -5.181000000
O     1.515000000     3.717000000    -6.468000000
H     0.723000000     3.668000000    -5.933000000
H     1.193000000     3.802000000    -7.365000000
O     3.466000000     0.239000000     1.676000000
H     3.137000000     0.214000000     2.574000000
H     2.698000000     0.061000000     1.134000000
O    -3.096000000     1.109000000    -1.075000000
H    -3.236000000     1.627000000    -0.282000000
H    -2.180000000     0.835000000    -1.024000000
