158
-3051.97952
C    -1.038000000     0.918000000     0.618000000
H    -1.740000000     1.677000000     0.954000000
C    -0.080000000     1.313000000    -0.314000000
H    -0.126000000     2.290000000    -0.789000000
C     0.787000000     0.360000000    -0.813000000
H     1.422000000     0.607000000    -1.662000000
C     0.910000000    -0.875000000    -0.262000000
H     1.590000000    -1.591000000    -0.718000000
C     0.033000000    -1.252000000     0.780000000
H     0.168000000    -2.260000000     1.162000000
C    -0.967000000    -0.398000000     1.204000000
C    -1.974000000    -0.847000000     2.207000000
O    -2.698000000     0.026000000     2.674000000
O    -1.987000000    -1.956000000     2.717000000
O     2.074000000    -4.657000000     1.065000000
H     2.190000000    -3.713000000     0.964000000
H     2.591000000    -4.881000000     1.838000000
O     0.176000000    -4.235000000     3.361000000
H     0.563000000    -3.365000000     3.267000000
H    -0.758000000    -4.069000000     3.489000000
O     4.089000000    -2.267000000     0.591000000
H     4.112000000    -1.415000000     0.156000000
H     5.005000000    -2.544000000     0.623000000
O    -3.481000000    -3.642000000     1.308000000
H    -2.884000000    -3.025000000     1.731000000
H    -3.265000000    -4.490000000     1.696000000
O    -6.849000000    -0.513000000     1.929000000
H    -6.070000000     0.020000000     1.770000000
H    -6.788000000    -1.223000000     1.289000000
O    -5.008000000     1.121000000    -1.444000000
H    -5.218000000     0.956000000    -0.525000000
H    -4.975000000     2.075000000    -1.514000000
O     1.836000000    -1.901000000     3.138000000
H     2.094000000    -1.050000000     3.492000000
H     2.323000000    -1.977000000     2.317000000
O    -2.165000000     2.331000000     3.588000000
H    -2.268000000     1.422000000     3.308000000
H    -1.220000000     2.446000000     3.685000000
O     0.178000000    -6.597000000     1.203000000
H     0.805000000    -5.946000000     1.518000000
H    -0.552000000    -6.543000000     1.820000000
O    -0.077000000    -4.054000000    -1.788000000
H    -0.158000000    -3.766000000    -0.879000000
H    -0.838000000    -3.676000000    -2.228000000
O    -1.279000000     6.413000000    -0.047000000
H    -1.484000000     6.128000000     0.843000000
H    -0.956000000     5.623000000    -0.482000000
O     3.137000000     0.384000000    -7.150000000
H     3.477000000    -0.507000000    -7.067000000
H     2.826000000     0.605000000    -6.273000000
O    -4.981000000     3.308000000     3.151000000
H    -4.154000000     2.950000000     3.475000000
H    -5.601000000     3.162000000     3.865000000
O     4.135000000     0.407000000    -0.780000000
H     3.622000000    -0.103000000    -1.407000000
H     3.517000000     1.050000000    -0.431000000
O    -2.913000000    -4.156000000     4.178000000
H    -3.428000000    -3.801000000     4.902000000
H    -2.918000000    -3.463000000     3.518000000
O     2.646000000     2.089000000     0.870000000
H     1.826000000     1.651000000     0.642000000
H     2.746000000     2.771000000     0.206000000
O    -2.313000000    -2.961000000    -3.080000000
H    -2.930000000    -3.403000000    -2.496000000
H    -2.232000000    -2.078000000    -2.720000000
O     2.445000000     1.512000000    -4.643000000
H     1.726000000     1.920000000    -4.161000000
H     3.192000000     2.092000000    -4.497000000
O     6.851000000     0.331000000    -4.142000000
H     7.645000000    -0.113000000    -4.441000000
H     6.275000000    -0.376000000    -3.852000000
O    -0.914000000    -0.719000000     5.085000000
H    -1.388000000    -0.971000000     4.293000000
H    -0.097000000    -1.216000000     5.043000000
O    -4.422000000    -4.299000000    -1.220000000
H    -4.008000000    -4.063000000    -0.389000000
H    -4.730000000    -5.196000000    -1.087000000
O     2.071000000     5.859000000    -4.151000000
H     1.648000000     5.379000000    -3.439000000
H     1.348000000     6.151000000    -4.706000000
O    -3.148000000     2.708000000     6.102000000
H    -2.569000000     2.515000000     5.365000000
H    -2.570000000     2.720000000     6.864000000
O    -5.994000000    -2.622000000     0.394000000
H    -6.570000000    -3.361000000     0.593000000
H    -5.110000000    -2.983000000     0.460000000
O     4.523000000    -4.233000000    -1.781000000
H     3.868000000    -3.873000000    -1.182000000
H     4.050000000    -4.897000000    -2.283000000
O     0.194000000     2.866000000    -3.990000000
H    -0.665000000     2.457000000    -4.096000000
H     0.310000000     3.390000000    -4.783000000
O    -4.719000000     1.285000000     1.310000000
H    -4.897000000     2.153000000     1.672000000
H    -3.955000000     0.974000000     1.796000000
O     0.536000000     2.337000000     3.756000000
H     1.177000000     1.636000000     3.637000000
H     0.907000000     3.083000000     3.283000000
O     3.913000000    -2.098000000    -6.021000000
H     3.376000000    -2.890000000    -6.003000000
H     4.608000000    -2.266000000    -5.385000000
O     0.219000000    -4.212000000     5.873000000
H     0.608000000    -5.010000000     6.232000000
H     0.263000000    -4.330000000     4.924000000
O     0.543000000     4.843000000    -1.704000000
H     1.375000000     4.916000000    -1.235000000
H     0.567000000     3.971000000    -2.098000000
O    -0.134000000     0.763000000     7.118000000
H     0.817000000     0.856000000     7.062000000
H    -0.395000000     0.442000000     6.255000000
O     6.789000000     1.725000000    -1.486000000
H     7.225000000     1.243000000    -2.188000000
H     6.186000000     1.090000000    -1.099000000
O     1.624000000    -3.038000000    -3.916000000
H     1.104000000    -3.538000000    -3.287000000
H     1.335000000    -3.356000000    -4.771000000
O    -4.344000000    -0.279000000     4.794000000
H    -4.465000000     0.657000000     4.953000000
H    -3.942000000    -0.325000000     3.927000000
O     4.886000000     2.519000000    -3.461000000
H     5.437000000     1.827000000    -3.095000000
H     5.469000000     3.006000000    -4.044000000
O    -6.949000000    -1.486000000     4.845000000
H    -6.960000000    -1.320000000     3.902000000
H    -6.229000000    -0.949000000     5.175000000
O     3.443000000     3.612000000    -1.324000000
H     3.867000000     3.038000000    -1.962000000
H     3.812000000     4.478000000    -1.499000000
O    -1.102000000    -2.602000000     7.336000000
H    -0.608000000    -3.324000000     6.946000000
H    -0.984000000    -1.874000000     6.725000000
O     1.482000000    -7.164000000    -1.066000000
H     0.946000000    -6.506000000    -0.623000000
H     1.906000000    -7.645000000    -0.355000000
O    -2.782000000     2.164000000    -4.068000000
H    -3.198000000     1.307000000    -4.166000000
H    -3.484000000     2.737000000    -3.759000000
O     1.396000000     4.477000000     2.477000000
H     1.366000000     5.414000000     2.282000000
H     2.326000000     4.254000000     2.435000000
O     6.261000000    -2.200000000    -2.453000000
H     5.926000000    -3.008000000    -2.065000000
H     6.125000000    -2.312000000    -3.394000000
O     6.308000000     4.699000000    -1.911000000
H     6.128000000     4.845000000    -0.983000000
H     6.246000000     3.750000000    -2.021000000
O    -1.924000000     5.375000000     2.236000000
H    -2.440000000     4.613000000     1.973000000
H    -2.366000000     5.705000000     3.018000000
O     3.084000000    -0.964000000    -3.029000000
H     2.590000000    -1.774000000    -3.161000000
H     2.837000000    -0.410000000    -3.769000000
O    -2.669000000    -0.052000000     7.404000000
H    -2.738000000     0.035000000     6.453000000
H    -1.822000000     0.337000000     7.620000000
O    -2.647000000    -0.639000000    -1.689000000
H    -1.900000000    -0.041000000    -1.710000000
H    -3.365000000    -0.113000000    -1.338000000
