158
-3030.01396
C     0.868000000    -0.837000000     0.927000000
H     1.590000000    -1.293000000     1.600000000
C     1.256000000     0.216000000     0.108000000
H     2.296000000     0.485000000    -0.060000000
C     0.386000000     0.930000000    -0.689000000
H     0.685000000     1.840000000    -1.166000000
C    -0.924000000     0.576000000    -0.724000000
H    -1.628000000     1.129000000    -1.341000000
C    -1.348000000    -0.528000000     0.037000000
H    -2.384000000    -0.859000000     0.037000000
C    -0.464000000    -1.223000000     0.871000000
C    -0.974000000    -2.381000000     1.731000000
O    -0.264000000    -2.855000000     2.605000000
O    -2.093000000    -2.805000000     1.505000000
O    -2.800000000    -3.424000000     4.335000000
H    -2.466000000    -2.602000000     4.695000000
H    -2.613000000    -3.369000000     3.398000000
O     4.311000000    -4.448000000     4.054000000
H     3.465000000    -3.999000000     4.071000000
H     4.353000000    -4.848000000     3.186000000
O     7.818000000     0.357000000     0.859000000
H     8.403000000    -0.219000000     0.367000000
H     6.963000000     0.238000000     0.447000000
O     1.847000000    -6.791000000     2.852000000
H     2.207000000    -5.922000000     2.673000000
H     0.930000000    -6.629000000     3.075000000
O     0.594000000     4.594000000    -6.792000000
H     0.005000000     4.361000000    -7.510000000
H     0.908000000     3.755000000    -6.457000000
O    -2.824000000    -7.313000000     2.008000000
H    -2.432000000    -7.807000000     1.287000000
H    -2.192000000    -6.619000000     2.194000000
O    -4.118000000     0.987000000     0.869000000
H    -4.205000000     0.189000000     1.390000000
H    -3.279000000     1.360000000     1.141000000
O     4.180000000     1.280000000    -3.024000000
H     3.824000000     1.855000000    -2.346000000
H     4.101000000     1.786000000    -3.832000000
O    -3.800000000     3.411000000    -2.805000000
H    -3.472000000     4.022000000    -3.465000000
H    -3.537000000     3.798000000    -1.970000000
O     0.026000000    -2.964000000    -2.543000000
H     0.800000000    -2.424000000    -2.386000000
H    -0.237000000    -3.264000000    -1.672000000
O    -3.962000000    -1.336000000     2.448000000
H    -3.127000000    -1.756000000     2.240000000
H    -4.247000000    -1.758000000     3.259000000
O    -5.925000000     1.678000000    -0.919000000
H    -5.180000000     1.278000000    -0.470000000
H    -6.444000000     0.936000000    -1.229000000
O     0.114000000     0.855000000    -4.344000000
H    -0.701000000     1.348000000    -4.249000000
H    -0.061000000     0.238000000    -5.054000000
O    -1.911000000     2.298000000     4.870000000
H    -2.169000000     2.143000000     5.779000000
H    -1.962000000     1.436000000     4.456000000
O    -3.985000000    -2.953000000    -0.517000000
H    -3.130000000    -3.034000000    -0.093000000
H    -4.433000000    -2.266000000    -0.023000000
O    -2.508000000     3.880000000    -0.241000000
H    -1.905000000     4.610000000    -0.381000000
H    -2.101000000     3.363000000     0.454000000
O    -1.215000000    -4.537000000    -0.607000000
H    -1.581000000    -4.300000000     0.246000000
H    -0.754000000    -5.360000000    -0.449000000
O    -6.581000000    -4.009000000     2.361000000
H    -6.845000000    -3.547000000     1.565000000
H    -5.646000000    -4.172000000     2.244000000
O    -2.873000000    -2.070000000    -2.971000000
H    -3.249000000    -2.564000000    -2.242000000
H    -1.937000000    -2.270000000    -2.937000000
O     0.875000000    -1.268000000     4.642000000
H     0.567000000    -1.946000000     4.040000000
H     0.639000000    -1.593000000     5.510000000
O     3.072000000    -2.962000000    -0.484000000
H     2.723000000    -2.324000000    -1.106000000
H     3.502000000    -3.620000000    -1.030000000
O     1.921000000     3.014000000    -3.638000000
H     1.289000000     3.674000000    -3.351000000
H     1.384000000     2.262000000    -3.888000000
O    -1.352000000     2.152000000     1.563000000
H    -0.854000000     2.646000000     2.215000000
H    -0.690000000     1.652000000     1.085000000
O     3.500000000     6.430000000     2.270000000
H     2.953000000     7.089000000     2.697000000
H     2.905000000     5.699000000     2.101000000
O    -2.431000000     4.654000000    -5.236000000
H    -3.169000000     5.193000000    -5.521000000
H    -2.405000000     3.931000000    -5.862000000
O    -4.704000000     4.093000000     1.520000000
H    -4.849000000     3.906000000     0.592000000
H    -4.087000000     4.825000000     1.522000000
O     2.169000000    -3.912000000     2.068000000
H     1.293000000    -3.660000000     2.361000000
H     2.344000000    -3.342000000     1.320000000
O     6.293000000    -2.513000000    -1.184000000
H     6.055000000    -2.980000000    -1.985000000
H     6.261000000    -1.588000000    -1.427000000
O    -5.510000000    -4.110000000    -2.308000000
H    -5.072000000    -3.732000000    -1.546000000
H    -4.980000000    -4.874000000    -2.535000000
O    -0.011000000     5.718000000    -4.284000000
H    -0.950000000     5.681000000    -4.465000000
H     0.399000000     5.739000000    -5.149000000
O     5.438000000     5.949000000    -1.019000000
H     4.981000000     5.422000000    -1.675000000
H     4.802000000     6.616000000    -0.761000000
O    -0.418000000    -5.463000000     2.997000000
H    -0.706000000    -5.579000000     3.902000000
H    -0.461000000    -4.518000000     2.851000000
O     1.608000000     4.625000000     1.433000000
H     0.974000000     4.933000000     0.785000000
H     1.074000000     4.210000000     2.112000000
O    -0.211000000    -6.830000000     0.344000000
H    -0.504000000    -7.740000000     0.292000000
H     0.387000000    -6.814000000     1.091000000
O     5.376000000    -2.739000000     1.620000000
H     4.486000000    -2.629000000     1.286000000
H     5.936000000    -2.622000000     0.853000000
O     3.005000000    -1.276000000    -2.857000000
H     3.202000000    -1.527000000    -3.760000000
H     3.084000000    -0.323000000    -2.851000000
O     4.015000000    -0.453000000     5.825000000
H     4.311000000    -0.525000000     6.733000000
H     3.059000000    -0.451000000     5.884000000
O     4.214000000     4.528000000    -3.122000000
H     4.446000000     5.123000000    -3.835000000
H     3.761000000     3.803000000    -3.554000000
O     2.029000000     2.123000000    -6.887000000
H     2.835000000     2.425000000    -6.469000000
H     1.879000000     1.253000000    -6.517000000
O     1.927000000     6.001000000    -1.993000000
H     2.598000000     5.389000000    -2.298000000
H     1.155000000     5.791000000    -2.518000000
O    -0.469000000     5.802000000     0.001000000
H     0.199000000     6.326000000    -0.441000000
H    -0.959000000     6.433000000     0.529000000
O     5.874000000    -1.642000000     4.062000000
H     5.674000000    -2.337000000     3.435000000
H     5.052000000    -1.498000000     4.530000000
O     3.701000000     2.703000000    -0.467000000
H     4.378000000     2.886000000     0.184000000
H     3.106000000     3.450000000    -0.412000000
O     6.643000000    -0.179000000    -3.215000000
H     5.753000000     0.174000000    -3.208000000
H     7.202000000     0.585000000    -3.352000000
O     1.680000000     1.567000000     4.376000000
H     1.275000000     1.425000000     5.232000000
H     1.690000000     0.701000000     3.970000000
O    -4.077000000     0.790000000    -3.930000000
H    -3.496000000     0.245000000    -3.399000000
H    -3.987000000     1.668000000    -3.558000000
O     5.211000000    -0.012000000    -0.337000000
H     4.417000000    -0.536000000    -0.443000000
H     4.934000000     0.885000000    -0.525000000
O     0.141000000     3.473000000     3.337000000
H     0.673000000     3.102000000     4.041000000
H    -0.294000000     4.226000000     3.736000000
