158
-3001.43656
C     0.703000000    -0.466000000     1.199000000
H     1.442000000    -0.729000000     1.951000000
C     1.185000000     0.468000000     0.283000000
H     2.157000000     0.928000000     0.437000000
C     0.337000000     0.885000000    -0.778000000
H     0.634000000     1.636000000    -1.505000000
C    -0.916000000     0.271000000    -0.938000000
H    -1.517000000     0.563000000    -1.796000000
C    -1.291000000    -0.727000000    -0.027000000
H    -2.213000000    -1.279000000    -0.193000000
C    -0.479000000    -1.111000000     1.009000000
C    -0.847000000    -2.237000000     1.913000000
O    -1.924000000    -2.785000000     1.837000000
O    -0.244000000    -2.312000000     2.945000000
O     1.628000000     2.244000000    -5.278000000
H     1.573000000     3.176000000    -5.488000000
H     0.771000000     1.893000000    -5.520000000
O     4.213000000     5.276000000    -0.638000000
H     4.871000000     4.621000000    -0.408000000
H     4.268000000     5.928000000     0.061000000
O    -3.976000000     0.980000000    -4.939000000
H    -4.465000000     0.158000000    -4.974000000
H    -4.059000000     1.345000000    -5.820000000
O     2.646000000     5.907000000    -2.730000000
H     3.098000000     6.675000000    -3.080000000
H     3.194000000     5.619000000    -1.999000000
O    -6.819000000    -3.403000000     0.042000000
H    -7.603000000    -2.899000000     0.262000000
H    -6.468000000    -2.972000000    -0.737000000
O     1.516000000    -6.118000000     1.929000000
H     0.697000000    -6.307000000     2.386000000
H     1.243000000    -5.793000000     1.071000000
O     0.657000000     2.530000000     5.699000000
H     0.446000000     1.719000000     5.236000000
H     0.735000000     3.187000000     5.007000000
O    -4.577000000     4.482000000    -3.464000000
H    -5.529000000     4.581000000    -3.451000000
H    -4.388000000     3.887000000    -2.738000000
O    -2.409000000    -4.281000000    -0.430000000
H    -2.382000000    -3.706000000     0.334000000
H    -2.490000000    -3.686000000    -1.175000000
O     1.530000000    -1.214000000    -6.087000000
H     1.521000000    -1.167000000    -5.131000000
H     0.646000000    -0.957000000    -6.348000000
O     0.681000000    -3.492000000     6.808000000
H     0.101000000    -3.544000000     6.048000000
H     0.265000000    -4.051000000     7.465000000
O    -1.265000000    -3.454000000     5.044000000
H    -0.912000000    -3.058000000     4.247000000
H    -2.180000000    -3.640000000     4.834000000
O     4.740000000    -1.865000000    -0.591000000
H     5.097000000    -1.324000000    -1.296000000
H     3.950000000    -1.403000000    -0.310000000
O    -4.116000000     0.272000000    -2.369000000
H    -4.338000000     0.619000000    -3.233000000
H    -4.472000000     0.915000000    -1.755000000
O    -0.142000000     8.006000000    -3.011000000
H    -0.952000000     8.381000000    -3.356000000
H    -0.394000000     7.137000000    -2.698000000
O    -1.056000000    -0.635000000     6.881000000
H    -0.418000000    -0.397000000     6.208000000
H    -1.216000000    -1.568000000     6.739000000
O     2.505000000     3.657000000     1.806000000
H     3.426000000     3.912000000     1.772000000
H     2.047000000     4.344000000     1.322000000
O     2.421000000    -2.548000000     3.666000000
H     2.683000000    -2.754000000     2.769000000
H     1.470000000    -2.657000000     3.669000000
O     6.217000000     2.231000000    -4.943000000
H     5.562000000     1.534000000    -4.931000000
H     6.012000000     2.739000000    -5.728000000
O    -1.257000000     2.528000000     1.288000000
H    -1.683000000     3.227000000     0.792000000
H    -0.817000000     1.997000000     0.624000000
O    -0.990000000     1.501000000    -4.719000000
H    -1.898000000     1.321000000    -4.476000000
H    -0.704000000     2.171000000    -4.098000000
O    -4.106000000    -0.887000000     2.460000000
H    -3.590000000    -0.274000000     2.983000000
H    -3.456000000    -1.433000000     2.019000000
O    -0.969000000    -6.158000000     2.978000000
H    -0.955000000    -6.105000000     3.934000000
H    -1.412000000    -5.355000000     2.701000000
O    -2.400000000     0.976000000     3.265000000
H    -1.637000000     0.798000000     3.815000000
H    -2.032000000     1.272000000     2.433000000
O    -0.331000000    -4.595000000    -3.063000000
H     0.348000000    -4.235000000    -3.634000000
H    -1.152000000    -4.396000000    -3.512000000
O    -1.199000000     4.444000000    -1.038000000
H    -0.415000000     4.848000000    -0.667000000
H    -1.530000000     5.091000000    -1.661000000
O     0.236000000     3.815000000     3.274000000
H    -0.185000000     3.275000000     2.605000000
H     1.170000000     3.762000000     3.072000000
O    -3.180000000    -6.386000000     5.564000000
H    -4.054000000    -6.760000000     5.454000000
H    -3.219000000    -5.546000000     5.108000000
O     2.201000000    -0.042000000    -3.478000000
H     1.792000000    -0.034000000    -2.612000000
H     1.870000000     0.748000000    -3.906000000
O    -2.352000000    -3.219000000    -4.705000000
H    -3.104000000    -2.865000000    -5.180000000
H    -2.444000000    -2.872000000    -3.818000000
O     4.986000000    -3.284000000     4.977000000
H     5.452000000    -3.872000000     4.382000000
H     4.212000000    -3.010000000     4.486000000
O    -6.385000000    -1.778000000    -2.089000000
H    -6.835000000    -2.132000000    -2.856000000
H    -5.879000000    -1.040000000    -2.427000000
O    -0.824000000    -0.618000000    -6.727000000
H    -0.950000000     0.077000000    -6.081000000
H    -1.454000000    -0.418000000    -7.419000000
O    -6.272000000    -5.278000000     2.320000000
H    -6.475000000    -4.567000000     1.712000000
H    -5.545000000    -4.943000000     2.846000000
O    -6.378000000     0.430000000     1.196000000
H    -7.149000000    -0.133000000     1.274000000
H    -5.740000000     0.046000000     1.797000000
O    -5.830000000     1.892000000    -0.956000000
H    -6.013000000     1.419000000    -0.145000000
H    -6.551000000     1.654000000    -1.540000000
O     0.376000000    -4.881000000    -0.152000000
H     0.790000000    -4.569000000    -0.957000000
H    -0.560000000    -4.747000000    -0.297000000
O    -3.499000000    -4.064000000     3.604000000
H    -3.034000000    -3.591000000     2.914000000
H    -4.106000000    -3.420000000     3.968000000
O     0.962000000     5.471000000     0.039000000
H     1.166000000     6.227000000     0.591000000
H     1.558000000     5.551000000    -0.706000000
O     4.779000000     0.003000000    -2.411000000
H     5.434000000    -0.105000000    -3.101000000
H     3.945000000    -0.185000000    -2.841000000
O     3.376000000    -0.430000000     5.127000000
H     4.051000000     0.045000000     4.643000000
H     3.256000000    -1.242000000     4.635000000
O    -4.435000000    -6.069000000    -1.160000000
H    -3.839000000    -5.457000000    -0.728000000
H    -5.088000000    -5.511000000    -1.582000000
O     3.210000000    -3.771000000     1.274000000
H     3.566000000    -4.652000000     1.383000000
H     2.349000000    -3.907000000     0.880000000
O     4.667000000     1.211000000     1.438000000
H     4.810000000     1.028000000     2.367000000
H     4.028000000     1.924000000     1.431000000
O    -3.589000000    -2.553000000    -2.133000000
H    -4.485000000    -2.887000000    -2.174000000
H    -3.685000000    -1.602000000    -2.179000000
O     0.488000000    -0.155000000     4.477000000
H     0.198000000    -0.903000000     3.954000000
H     1.377000000    -0.383000000     4.749000000
O     0.753000000     5.060000000    -4.889000000
H     1.138000000     5.202000000    -4.024000000
H     0.987000000     5.844000000    -5.386000000
O     6.732000000     0.975000000    -0.225000000
H     6.152000000     0.895000000     0.532000000
H     6.185000000     0.731000000    -0.972000000
