158
-3037.44692
C    -1.203000000     0.471000000     0.826000000
H    -2.069000000     0.917000000     1.308000000
C    -0.121000000     1.251000000     0.388000000
H    -0.124000000     2.318000000     0.596000000
C     0.953000000     0.693000000    -0.369000000
H     1.828000000     1.211000000    -0.735000000
C     0.955000000    -0.645000000    -0.616000000
H     1.806000000    -1.060000000    -1.150000000
C    -0.124000000    -1.453000000    -0.206000000
H    -0.073000000    -2.473000000    -0.578000000
C    -1.204000000    -0.895000000     0.567000000
C    -2.446000000    -1.740000000     0.772000000
O    -3.554000000    -1.253000000     1.084000000
O    -2.522000000    -2.878000000     0.411000000
O    -3.446000000    -6.267000000     3.434000000
H    -3.805000000    -7.140000000     3.592000000
H    -3.720000000    -5.754000000     4.195000000
O     6.081000000    -1.719000000    -2.029000000
H     5.641000000    -1.484000000    -1.213000000
H     5.502000000    -2.363000000    -2.436000000
O     1.801000000    -4.561000000     1.633000000
H     1.488000000    -4.588000000     0.729000000
H     2.755000000    -4.557000000     1.557000000
O     0.350000000    -7.065000000     1.893000000
H     1.024000000    -6.438000000     2.156000000
H    -0.292000000    -6.540000000     1.416000000
O     1.516000000    -0.810000000    -4.826000000
H     2.322000000    -0.521000000    -4.398000000
H     1.569000000    -0.444000000    -5.709000000
O    -8.044000000     0.598000000     0.075000000
H    -7.655000000    -0.270000000    -0.034000000
H    -8.559000000     0.731000000    -0.721000000
O    -6.441000000    -4.959000000     2.606000000
H    -5.910000000    -4.361000000     2.079000000
H    -6.507000000    -5.752000000     2.075000000
O     6.685000000     3.494000000    -2.949000000
H     6.972000000     4.274000000    -2.474000000
H     5.866000000     3.241000000    -2.523000000
O    -4.137000000    -3.883000000     2.158000000
H    -3.521000000    -3.410000000     1.599000000
H    -3.717000000    -4.729000000     2.315000000
O     0.900000000    -2.600000000     3.213000000
H     1.344000000    -3.334000000     2.787000000
H     0.017000000    -2.925000000     3.391000000
O    -3.401000000     1.003000000     5.491000000
H    -3.488000000     0.982000000     4.538000000
H    -2.792000000     0.292000000     5.691000000
O    -2.585000000    -2.336000000     4.436000000
H    -2.960000000    -1.618000000     3.926000000
H    -2.410000000    -3.021000000     3.790000000
O     1.273000000    -4.607000000    -1.372000000
H     1.228000000    -4.161000000    -2.218000000
H     2.156000000    -4.976000000    -1.343000000
O     4.133000000    -3.462000000    -2.413000000
H     3.252000000    -3.490000000    -2.785000000
H     4.011000000    -3.107000000    -1.533000000
O    -3.424000000    -4.514000000    -1.505000000
H    -3.150000000    -3.847000000    -0.875000000
H    -3.472000000    -5.321000000    -0.993000000
O     3.892000000     0.206000000    -3.316000000
H     4.460000000     0.035000000    -2.565000000
H     4.259000000     0.992000000    -3.720000000
O     2.512000000     3.574000000     0.551000000
H     1.650000000     3.457000000     0.152000000
H     3.123000000     3.189000000    -0.077000000
O    -3.715000000     1.124000000    -0.965000000
H    -4.414000000     1.023000000    -1.612000000
H    -3.832000000     0.385000000    -0.369000000
O     1.333000000     4.054000000    -2.006000000
H     2.058000000     3.965000000    -2.625000000
H     1.079000000     4.975000000    -2.067000000
O    -1.196000000    -1.566000000    -4.904000000
H    -1.209000000    -2.349000000    -4.353000000
H    -0.305000000    -1.227000000    -4.817000000
O    -0.833000000    -5.011000000     0.262000000
H    -0.164000000    -4.776000000    -0.381000000
H    -1.499000000    -4.329000000     0.175000000
O     2.903000000     3.354000000    -4.025000000
H     2.555000000     2.472000000    -3.895000000
H     3.786000000     3.216000000    -4.366000000
O     5.134000000     2.054000000    -1.307000000
H     4.453000000     1.585000000    -0.824000000
H     5.781000000     2.287000000    -0.641000000
O    -1.601000000    -3.888000000    -3.444000000
H    -1.717000000    -3.868000000    -2.494000000
H    -2.098000000    -4.654000000    -3.730000000
O     2.423000000     4.885000000     2.858000000
H     2.724000000     4.384000000     3.616000000
H     2.448000000     4.261000000     2.133000000
O    -3.647000000     4.056000000    -0.203000000
H    -3.577000000     3.858000000     0.731000000
H    -4.001000000     3.256000000    -0.591000000
O     0.432000000     6.565000000    -1.592000000
H    -0.525000000     6.554000000    -1.616000000
H     0.665000000     7.477000000    -1.764000000
O    -5.729000000    -3.178000000    -1.786000000
H    -4.848000000    -3.535000000    -1.897000000
H    -5.646000000    -2.555000000    -1.064000000
O    -7.120000000    -0.802000000     3.502000000
H    -7.123000000    -0.700000000     4.454000000
H    -7.973000000    -0.468000000     3.223000000
O     0.630000000     2.810000000     4.472000000
H     1.586000000     2.844000000     4.438000000
H     0.416000000     1.894000000     4.299000000
O    -8.324000000    -2.925000000    -0.603000000
H    -7.596000000    -3.299000000    -1.098000000
H    -7.909000000    -2.487000000     0.140000000
O    -0.742000000     2.674000000    -5.089000000
H    -1.020000000     2.528000000    -4.185000000
H    -0.403000000     3.569000000    -5.094000000
O     3.991000000     0.817000000     0.929000000
H     4.853000000     0.407000000     0.996000000
H     3.602000000     0.702000000     1.796000000
O     5.295000000     2.132000000    -4.973000000
H     5.389000000     2.570000000    -5.819000000
H     5.953000000     2.546000000    -4.414000000
O     1.704000000    -3.093000000    -3.763000000
H     1.355000000    -3.504000000    -4.554000000
H     1.611000000    -2.154000000    -3.920000000
O     3.986000000    -2.139000000     0.064000000
H     4.173000000    -2.663000000     0.843000000
H     3.449000000    -1.415000000     0.385000000
O    -4.356000000     0.299000000     2.995000000
H    -5.271000000     0.066000000     3.153000000
H    -4.086000000    -0.266000000     2.272000000
O     2.397000000     6.590000000     0.498000000
H     2.201000000     5.747000000     0.906000000
H     1.753000000     6.671000000    -0.206000000
O     0.113000000    -6.003000000    -3.726000000
H    -0.283000000    -5.207000000    -3.370000000
H     0.507000000    -5.725000000    -4.552000000
O    -0.997000000    -4.730000000     3.295000000
H    -0.612000000    -4.900000000     2.435000000
H    -1.657000000    -5.414000000     3.401000000
O    -6.326000000    -1.595000000     0.991000000
H    -6.721000000    -1.190000000     1.764000000
H    -5.435000000    -1.812000000     1.264000000
O    -5.838000000    -6.238000000    -2.071000000
H    -5.280000000    -5.486000000    -2.267000000
H    -6.425000000    -5.928000000    -1.382000000
O    -1.719000000     4.862000000    -2.560000000
H    -2.501000000     5.182000000    -2.112000000
H    -1.374000000     4.181000000    -1.983000000
O    -1.895000000     5.258000000     3.092000000
H    -1.222000000     4.913000000     3.678000000
H    -2.164000000     4.505000000     2.566000000
O    -1.639000000     1.852000000    -2.383000000
H    -0.828000000     1.442000000    -2.080000000
H    -2.234000000     1.784000000    -1.636000000
O     1.474000000     0.157000000     2.751000000
H     1.277000000     0.231000000     1.817000000
H     1.305000000    -0.762000000     2.959000000
O    -3.270000000     2.990000000     2.503000000
H    -3.276000000     2.056000000     2.714000000
H    -4.123000000     3.308000000     2.798000000
O     6.231000000    -0.852000000     1.535000000
H     7.035000000    -0.410000000     1.262000000
H     6.534000000    -1.643000000     1.983000000
