158
-3048.75693
C    -1.105000000     0.353000000     0.934000000
H    -1.935000000     0.675000000     1.558000000
C    -0.142000000     1.242000000     0.501000000
H    -0.214000000     2.308000000     0.697000000
C     0.852000000     0.834000000    -0.397000000
H     1.654000000     1.555000000    -0.871000000
C     0.956000000    -0.545000000    -0.721000000
H     1.737000000    -0.935000000    -1.369000000
C     0.011000000    -1.420000000    -0.214000000
H     0.002000000    -2.440000000    -0.591000000
C    -1.040000000    -1.012000000     0.586000000
C    -2.070000000    -2.064000000     1.034000000
O    -3.065000000    -1.765000000     1.702000000
O    -1.765000000    -3.262000000     0.824000000
O    -4.140000000    -2.233000000     5.422000000
H    -3.476000000    -2.712000000     4.926000000
H    -4.326000000    -2.793000000     6.175000000
O    -6.904000000     1.017000000     3.074000000
H    -6.774000000     1.547000000     3.861000000
H    -6.099000000     0.505000000     2.994000000
O     1.399000000    -6.754000000     1.161000000
H     2.266000000    -7.024000000     0.860000000
H     1.435000000    -5.797000000     1.168000000
O    -2.745000000     1.479000000     4.302000000
H    -3.547000000     1.330000000     4.803000000
H    -2.105000000     1.764000000     4.954000000
O    -4.810000000    -6.449000000    -0.044000000
H    -3.988000000    -6.786000000    -0.400000000
H    -4.747000000    -6.607000000     0.898000000
O     6.715000000     4.084000000    -1.939000000
H     6.991000000     3.193000000    -2.151000000
H     6.248000000     3.999000000    -1.107000000
O    -2.983000000    -5.358000000     1.800000000
H    -2.479000000    -4.583000000     1.550000000
H    -3.891000000    -5.128000000     1.601000000
O    -2.541000000    -7.959000000     0.850000000
H    -2.347000000    -7.078000000     1.174000000
H    -1.730000000    -8.448000000     0.989000000
O     1.470000000    -2.534000000     3.058000000
H     1.999000000    -3.131000000     3.588000000
H     1.333000000    -3.002000000     2.235000000
O    -5.057000000    -0.887000000     3.241000000
H    -4.339000000    -1.197000000     2.689000000
H    -5.039000000    -1.466000000     4.004000000
O    -1.670000000    -3.115000000     4.239000000
H    -1.798000000    -2.688000000     3.392000000
H    -0.756000000    -3.398000000     4.228000000
O     1.457000000    -4.589000000    -1.902000000
H     2.150000000    -5.247000000    -1.842000000
H     0.762000000    -5.017000000    -2.401000000
O    -2.942000000    -4.000000000    -1.324000000
H    -2.428000000    -3.594000000    -0.626000000
H    -2.581000000    -4.883000000    -1.406000000
O     4.843000000     0.228000000    -1.700000000
H     4.561000000    -0.627000000    -1.375000000
H     4.908000000     0.773000000    -0.915000000
O     4.637000000     4.581000000    -0.185000000
H     4.210000000     4.214000000    -0.959000000
H     4.429000000     3.966000000     0.518000000
O    -3.924000000     1.429000000    -1.950000000
H    -3.101000000     0.977000000    -2.136000000
H    -4.257000000     1.004000000    -1.159000000
O     3.345000000     3.303000000    -2.253000000
H     3.696000000     2.674000000    -2.883000000
H     3.160000000     4.085000000    -2.773000000
O     1.598000000    -2.060000000    -4.060000000
H     1.909000000    -2.626000000    -3.353000000
H     2.100000000    -2.337000000    -4.826000000
O     0.003000000     6.423000000    -3.535000000
H     0.912000000     6.141000000    -3.438000000
H    -0.513000000     5.677000000    -3.229000000
O     0.855000000    -4.125000000     0.891000000
H     1.157000000    -4.020000000    -0.011000000
H    -0.028000000    -3.755000000     0.893000000
O     4.480000000     2.427000000    -5.524000000
H     3.853000000     2.055000000    -4.904000000
H     5.292000000     2.509000000    -5.024000000
O    -0.619000000     1.934000000     5.880000000
H    -0.082000000     1.901000000     5.089000000
H    -0.027000000     1.666000000     6.583000000
O     6.241000000     1.454000000     0.434000000
H     5.751000000     2.026000000     1.025000000
H     6.660000000     0.816000000     1.011000000
O    -2.073000000    -6.516000000    -1.794000000
H    -1.757000000    -6.591000000    -2.695000000
H    -1.742000000    -7.301000000    -1.358000000
O    -4.662000000     0.398000000     5.983000000
H    -5.617000000     0.364000000     6.031000000
H    -4.411000000    -0.444000000     5.603000000
O    -1.066000000    -1.707000000    -4.311000000
H    -0.183000000    -2.076000000    -4.299000000
H    -1.638000000    -2.449000000    -4.117000000
O    -2.884000000     3.728000000    -0.440000000
H    -2.935000000     3.191000000     0.351000000
H    -3.670000000     3.499000000    -0.936000000
O     0.965000000     3.159000000    -4.156000000
H     0.106000000     3.554000000    -4.009000000
H     1.272000000     2.919000000    -3.282000000
O    -7.316000000    -2.576000000     2.826000000
H    -6.712000000    -1.835000000     2.783000000
H    -8.176000000    -2.195000000     2.649000000
O    -1.031000000     5.724000000     0.716000000
H    -1.075000000     5.223000000     1.531000000
H    -1.620000000     5.262000000     0.119000000
O     1.277000000     2.354000000     3.901000000
H     1.872000000     3.102000000     3.845000000
H     1.575000000     1.760000000     3.212000000
O    -7.436000000    -3.132000000    -0.265000000
H    -6.625000000    -3.005000000     0.227000000
H    -7.720000000    -4.017000000    -0.034000000
O    -0.887000000    -1.067000000     6.200000000
H    -1.328000000    -0.233000000     6.362000000
H    -1.199000000    -1.340000000     5.338000000
O    -6.197000000    -4.818000000     3.801000000
H    -6.374000000    -4.148000000     3.140000000
H    -7.012000000    -5.317000000     3.861000000
O     4.042000000     2.614000000     1.565000000
H     3.993000000     2.980000000     2.449000000
H     3.588000000     1.774000000     1.628000000
O     6.532000000     1.507000000    -3.432000000
H     6.052000000     1.096000000    -2.712000000
H     7.380000000     1.064000000    -3.437000000
O     4.198000000    -2.032000000    -0.250000000
H     4.266000000    -2.987000000    -0.242000000
H     4.206000000    -1.783000000     0.674000000
O    -4.547000000    -0.155000000     0.132000000
H    -5.361000000    -0.649000000     0.036000000
H    -3.994000000    -0.708000000     0.685000000
O     1.608000000     6.166000000    -0.243000000
H     1.429000000     5.364000000    -0.733000000
H     1.084000000     6.083000000     0.553000000
O    -4.859000000    -3.345000000     0.599000000
H    -4.510000000    -3.893000000    -0.103000000
H    -4.090000000    -2.915000000     0.973000000
O     0.685000000     0.659000000    -5.398000000
H     1.129000000     1.286000000    -4.827000000
H     0.411000000    -0.046000000    -4.812000000
O    -1.391000000     4.194000000    -2.904000000
H    -1.702000000     3.878000000    -2.056000000
H    -2.157000000     4.607000000    -3.302000000
O    -1.474000000     0.670000000    -2.713000000
H    -0.674000000     0.739000000    -2.192000000
H    -1.358000000    -0.128000000    -3.228000000
O    -1.102000000     3.719000000     2.868000000
H    -0.415000000     3.117000000     3.153000000
H    -1.900000000     3.383000000     3.276000000
O     3.390000000     0.417000000    -3.961000000
H     3.903000000     0.275000000    -3.165000000
H     3.425000000    -0.422000000    -4.421000000
O     2.404000000     0.615000000     2.159000000
H     1.851000000     0.702000000     1.382000000
H     2.650000000    -0.310000000     2.175000000
O    -3.998000000     2.182000000     1.536000000
H    -3.863000000     1.801000000     2.404000000
H    -4.316000000     1.454000000     1.002000000
O     4.478000000     7.254000000    -0.958000000
H     4.171000000     6.351000000    -0.885000000
H     3.780000000     7.777000000    -0.564000000
