158
-3021.43482
C    -1.451000000     0.245000000     0.120000000
H    -2.471000000     0.615000000     0.182000000
C    -0.488000000     1.098000000    -0.416000000
H    -0.768000000     1.978000000    -0.990000000
C     0.850000000     0.826000000    -0.312000000
H     1.635000000     1.481000000    -0.640000000
C     1.274000000    -0.491000000     0.076000000
H     2.319000000    -0.772000000    -0.032000000
C     0.299000000    -1.330000000     0.613000000
H     0.649000000    -2.320000000     0.894000000
C    -1.055000000    -0.966000000     0.652000000
C    -2.214000000    -1.826000000     1.210000000
O    -3.313000000    -1.631000000     0.795000000
O    -2.072000000    -2.835000000     1.845000000
O    -3.657000000    -1.215000000     5.673000000
H    -3.585000000    -2.089000000     5.289000000
H    -3.787000000    -1.375000000     6.608000000
O    -2.784000000    -6.830000000     4.145000000
H    -2.507000000    -6.038000000     3.685000000
H    -3.618000000    -6.592000000     4.550000000
O     2.823000000    -3.566000000    -0.334000000
H     3.251000000    -4.103000000     0.333000000
H     3.392000000    -2.802000000    -0.428000000
O    -5.952000000     1.169000000     3.064000000
H    -5.816000000     1.781000000     3.787000000
H    -5.090000000     0.783000000     2.911000000
O     6.108000000    -1.363000000    -3.717000000
H     6.763000000    -1.089000000    -4.359000000
H     5.959000000    -0.586000000    -3.179000000
O     1.304000000    -2.663000000     3.846000000
H     0.477000000    -3.107000000     3.655000000
H     1.977000000    -3.307000000     3.627000000
O     6.424000000     3.424000000    -1.305000000
H     7.112000000     3.888000000    -0.828000000
H     6.176000000     4.023000000    -2.010000000
O    -3.972000000    -4.872000000     1.892000000
H    -3.331000000    -4.163000000     1.831000000
H    -4.620000000    -4.556000000     2.521000000
O    -3.999000000    -6.717000000    -0.571000000
H    -3.581000000    -6.104000000     0.033000000
H    -4.598000000    -7.223000000    -0.023000000
O    -0.239000000    -5.228000000     4.006000000
H     0.241000000    -5.843000000     4.562000000
H     0.079000000    -5.407000000     3.121000000
O    -3.522000000     0.026000000     2.994000000
H    -3.598000000    -0.638000000     2.309000000
H    -3.074000000    -0.422000000     3.712000000
O    -2.494000000    -3.523000000     4.637000000
H    -2.593000000    -3.195000000     3.743000000
H    -1.641000000    -3.956000000     4.640000000
O     0.473000000    -4.030000000    -1.666000000
H     1.317000000    -3.877000000    -1.241000000
H     0.693000000    -4.486000000    -2.479000000
O    -2.497000000     2.724000000    -6.109000000
H    -2.099000000     2.518000000    -5.264000000
H    -2.636000000     1.872000000    -6.523000000
O    -2.192000000    -4.218000000    -2.098000000
H    -1.238000000    -4.150000000    -2.123000000
H    -2.361000000    -5.128000000    -1.852000000
O     4.700000000    -1.635000000    -0.334000000
H     5.595000000    -1.458000000    -0.625000000
H     4.488000000    -0.906000000     0.248000000
O     4.451000000     4.590000000    -3.073000000
H     4.697000000     5.500000000    -3.237000000
H     3.752000000     4.645000000    -2.421000000
O    -4.199000000     2.181000000    -2.625000000
H    -3.384000000     1.940000000    -3.065000000
H    -4.425000000     1.412000000    -2.102000000
O     4.811000000     2.301000000    -4.349000000
H     4.803000000     1.600000000    -3.697000000
H     4.510000000     3.074000000    -3.873000000
O     2.290000000    -1.154000000    -3.845000000
H     2.652000000    -1.827000000    -3.268000000
H     2.795000000    -1.236000000    -4.654000000
O    -0.292000000    -5.125000000     0.903000000
H     0.011000000    -5.020000000     0.001000000
H    -0.964000000    -4.452000000     1.010000000
O     0.559000000     4.616000000     3.583000000
H     0.675000000     3.755000000     3.182000000
H     0.206000000     4.429000000     4.453000000
O     4.872000000     0.798000000     1.195000000
H     4.578000000     0.246000000     1.920000000
H     4.879000000     1.684000000     1.555000000
O     1.608000000     6.492000000     2.139000000
H     1.184000000     5.811000000     2.662000000
H     2.497000000     6.167000000     1.998000000
O    -0.519000000    -1.020000000    -3.238000000
H     0.416000000    -1.222000000    -3.258000000
H    -0.722000000    -0.917000000    -2.308000000
O    -2.696000000     4.418000000    -1.436000000
H    -2.978000000     5.106000000    -2.039000000
H    -3.194000000     3.646000000    -1.704000000
O     0.575000000     3.480000000    -4.755000000
H     0.346000000     4.359000000    -5.059000000
H     1.531000000     3.458000000    -4.784000000
O    -7.564000000    -0.804000000     2.239000000
H    -7.175000000    -0.142000000     2.811000000
H    -8.173000000    -1.280000000     2.803000000
O    -0.097000000     4.925000000    -0.746000000
H    -0.204000000     4.927000000     0.205000000
H    -0.912000000     4.548000000    -1.078000000
O     1.649000000     2.186000000     3.455000000
H     2.524000000     1.825000000     3.316000000
H     1.077000000     1.419000000     3.494000000
O    -6.921000000    -3.005000000     0.053000000
H    -6.121000000    -3.452000000    -0.222000000
H    -6.666000000    -2.516000000     0.835000000
O     2.793000000    -4.862000000     3.157000000
H     3.618000000    -4.991000000     3.625000000
H     2.903000000    -5.350000000     2.340000000
O    -1.551000000     1.892000000     2.974000000
H    -1.089000000     1.330000000     3.597000000
H    -2.427000000     1.511000000     2.912000000
O    -6.244000000    -2.986000000     3.460000000
H    -6.641000000    -2.251000000     2.992000000
H    -6.981000000    -3.422000000     3.888000000
O     2.551000000     4.956000000    -1.325000000
H     2.726000000     5.475000000    -0.540000000
H     1.632000000     4.703000000    -1.244000000
O     4.226000000     0.112000000     3.915000000
H     4.574000000    -0.743000000     3.663000000
H     3.742000000    -0.055000000     4.724000000
O    -4.797000000    -0.058000000    -0.862000000
H    -5.180000000    -0.695000000    -1.465000000
H    -4.231000000    -0.578000000    -0.292000000
O     0.459000000     7.266000000    -1.999000000
H     0.968000000     7.055000000    -2.781000000
H     0.070000000     6.433000000    -1.734000000
O    -4.486000000    -3.509000000    -0.632000000
H    -3.806000000    -3.437000000    -1.302000000
H    -4.176000000    -2.954000000     0.084000000
O     0.441000000     0.629000000    -5.767000000
H    -0.025000000     1.423000000    -5.503000000
H     0.949000000     0.382000000    -4.994000000
O     4.784000000     3.662000000     1.625000000
H     5.373000000     3.840000000     0.891000000
H     4.494000000     4.527000000     1.914000000
O    -4.593000000     3.634000000     1.689000000
H    -4.907000000     2.971000000     2.304000000
H    -4.846000000     4.468000000     2.087000000
O    -1.877000000     1.801000000    -3.722000000
H    -1.149000000     2.408000000    -3.590000000
H    -1.488000000     0.933000000    -3.612000000
O    -1.842000000     4.231000000     1.443000000
H    -1.636000000     3.368000000     1.802000000
H    -2.709000000     4.128000000     1.051000000
O     5.732000000     0.970000000    -2.033000000
H     5.454000000     0.397000000    -1.318000000
H     6.022000000     1.772000000    -1.598000000
O     0.171000000    -0.374000000     3.503000000
H    -0.048000000    -0.471000000     2.576000000
H     0.618000000    -1.189000000     3.731000000
O    -6.977000000     1.510000000    -0.088000000
H    -6.732000000     1.355000000     0.824000000
H    -6.351000000     0.992000000    -0.595000000
O     7.493000000     1.824000000     1.405000000
H     6.633000000     1.427000000     1.263000000
H     8.052000000     1.428000000     0.737000000
