158
-3034.75331
C     0.504000000    -0.474000000     1.326000000
H     0.807000000    -0.754000000     2.332000000
C     0.347000000     0.832000000     0.912000000
H     0.550000000     1.623000000     1.628000000
C    -0.036000000     1.194000000    -0.398000000
H    -0.092000000     2.233000000    -0.802000000
C    -0.354000000     0.174000000    -1.270000000
H    -0.728000000     0.364000000    -2.272000000
C    -0.195000000    -1.171000000    -0.851000000
H    -0.417000000    -1.945000000    -1.581000000
C     0.186000000    -1.480000000     0.435000000
C     0.229000000    -2.867000000     0.994000000
O     0.823000000    -3.168000000     2.024000000
O    -0.382000000    -3.723000000     0.400000000
O     5.260000000    -3.248000000    -1.017000000
H     5.213000000    -4.108000000    -1.434000000
H     4.388000000    -2.874000000    -1.139000000
O    -0.196000000    -6.411000000     2.802000000
H    -0.811000000    -6.417000000     3.535000000
H    -0.097000000    -5.485000000     2.579000000
O     3.391000000    -2.374000000     1.533000000
H     3.648000000    -2.178000000     2.434000000
H     2.478000000    -2.654000000     1.600000000
O     2.651000000     5.383000000    -3.920000000
H     3.255000000     5.804000000    -3.309000000
H     1.825000000     5.327000000    -3.440000000
O    -1.629000000    -2.775000000     4.877000000
H    -1.759000000    -3.098000000     5.769000000
H    -2.092000000    -3.403000000     4.324000000
O     2.816000000     0.701000000     5.486000000
H     3.152000000    -0.151000000     5.208000000
H     3.122000000     0.796000000     6.388000000
O     4.311000000    -2.024000000     4.462000000
H     4.889000000    -2.737000000     4.190000000
H     3.652000000    -2.447000000     5.011000000
O     0.041000000     0.466000000     7.234000000
H     0.715000000    -0.194000000     7.396000000
H     0.231000000     0.791000000     6.354000000
O     1.170000000    -2.698000000     4.778000000
H     0.313000000    -2.352000000     5.025000000
H     1.178000000    -2.661000000     3.822000000
O    -3.209000000    -3.813000000     1.005000000
H    -2.278000000    -4.010000000     0.899000000
H    -3.640000000    -4.667000000     0.975000000
O    -1.015000000    -5.670000000    -1.192000000
H    -0.208000000    -6.136000000    -1.414000000
H    -0.728000000    -4.947000000    -0.634000000
O     1.743000000    -5.636000000     0.484000000
H     1.629000000    -6.382000000     1.073000000
H     0.996000000    -5.067000000     0.672000000
O     1.994000000    -1.632000000    -6.134000000
H     2.104000000    -0.709000000    -6.362000000
H     2.351000000    -1.704000000    -5.248000000
O    -5.743000000     4.696000000    -1.044000000
H    -5.583000000     3.958000000    -1.633000000
H    -6.676000000     4.642000000    -0.839000000
O    -2.441000000     5.583000000    -3.228000000
H    -3.110000000     5.716000000    -3.900000000
H    -2.516000000     4.658000000    -2.995000000
O     0.287000000     1.103000000     4.387000000
H     0.220000000     2.020000000     4.653000000
H     1.165000000     0.837000000     4.660000000
O     0.548000000     3.237000000    -3.432000000
H     1.476000000     3.207000000    -3.197000000
H     0.112000000     3.564000000    -2.646000000
O     2.619000000    -3.742000000    -2.569000000
H     2.622000000    -4.138000000    -3.440000000
H     2.532000000    -2.803000000    -2.733000000
O     0.375000000     6.022000000     2.970000000
H     1.075000000     6.561000000     3.339000000
H    -0.429000000     6.493000000     3.186000000
O    -2.847000000     4.048000000     2.336000000
H    -2.687000000     3.104000000     2.317000000
H    -3.060000000     4.236000000     3.250000000
O    -0.346000000     2.527000000    -5.899000000
H    -1.108000000     1.988000000    -5.685000000
H     0.029000000     2.759000000    -5.050000000
O     3.995000000     5.503000000     0.399000000
H     3.675000000     6.296000000     0.827000000
H     3.208000000     4.981000000     0.242000000
O     3.269000000    -5.001000000     4.085000000
H     2.895000000    -5.874000000     4.202000000
H     2.663000000    -4.559000000     3.490000000
O     3.224000000     1.581000000    -0.396000000
H     3.439000000     2.507000000    -0.510000000
H     2.295000000     1.578000000    -0.164000000
O     1.731000000     4.278000000    -0.567000000
H     0.937000000     4.300000000    -0.034000000
H     1.583000000     4.937000000    -1.245000000
O    -2.496000000    -8.066000000    -0.397000000
H    -1.805000000    -8.617000000    -0.031000000
H    -2.157000000    -7.174000000    -0.321000000
O    -2.106000000     1.331000000     2.652000000
H    -1.270000000     1.182000000     3.096000000
H    -2.205000000     0.578000000     2.069000000
O     4.221000000    -6.519000000    -0.929000000
H     3.873000000    -6.964000000    -1.701000000
H     3.446000000    -6.197000000    -0.468000000
O    -4.434000000    -2.908000000     3.387000000
H    -4.060000000    -3.187000000     2.551000000
H    -4.455000000    -1.952000000     3.333000000
O     1.907000000    -1.491000000     7.127000000
H     2.715000000    -1.961000000     7.335000000
H     1.689000000    -1.771000000     6.238000000
O    -4.699000000     0.507000000    -3.610000000
H    -5.022000000     0.612000000    -4.505000000
H    -4.650000000    -0.441000000    -3.483000000
O    -0.080000000     6.073000000    -1.990000000
H    -0.831000000     6.010000000    -2.581000000
H    -0.273000000     6.831000000    -1.438000000
O    -4.632000000     2.353000000     0.600000000
H    -3.971000000     3.002000000     0.360000000
H    -4.156000000     1.523000000     0.625000000
O     2.518000000    -1.262000000    -3.491000000
H     3.072000000    -0.482000000    -3.472000000
H     1.712000000    -0.994000000    -3.050000000
O     0.364000000     3.914000000     5.168000000
H     0.671000000     4.481000000     5.874000000
H    -0.589000000     3.908000000     5.262000000
O     3.365000000     3.299000000     4.196000000
H     3.325000000     2.410000000     4.549000000
H     2.451000000     3.581000000     4.154000000
O    -2.809000000    -4.443000000    -2.752000000
H    -2.230000000    -4.889000000    -2.134000000
H    -2.415000000    -4.605000000    -3.609000000
O    -3.035000000     0.250000000     0.154000000
H    -3.545000000    -0.356000000    -0.384000000
H    -2.152000000     0.210000000    -0.212000000
O     3.980000000     0.991000000    -3.067000000
H     4.302000000     1.790000000    -3.483000000
H     4.092000000     1.147000000    -2.129000000
O     4.771000000     0.102000000     1.377000000
H     4.162000000     0.623000000     0.853000000
H     4.446000000    -0.796000000     1.300000000
O    -2.617000000     7.526000000    -1.134000000
H    -2.543000000     6.985000000    -1.920000000
H    -3.092000000     6.978000000    -0.509000000
O    -0.289000000     4.273000000     1.055000000
H    -1.222000000     4.202000000     1.257000000
H     0.068000000     4.820000000     1.755000000
O    -3.761000000    -2.199000000    -1.155000000
H    -3.602000000    -2.633000000    -0.316000000
H    -3.460000000    -2.828000000    -1.811000000
O     5.986000000    -4.121000000     1.767000000
H     5.611000000    -4.988000000     1.926000000
H     5.459000000    -3.760000000     1.054000000
O    -2.935000000     2.789000000    -2.718000000
H    -2.488000000     1.945000000    -2.767000000
H    -3.860000000     2.565000000    -2.609000000
O    -2.280000000    -0.712000000    -4.779000000
H    -2.346000000     0.102000000    -5.279000000
H    -2.773000000    -1.350000000    -5.294000000
O     1.142000000    -7.101000000    -1.678000000
H     1.546000000    -6.590000000    -0.977000000
H     1.839000000    -7.681000000    -1.985000000
O    -3.784000000     5.951000000     0.596000000
H    -4.508000000     5.586000000     0.088000000
H    -3.455000000     5.213000000     1.109000000
