158
-3063.75308
C    -0.771000000    -0.905000000     0.928000000
H    -1.405000000    -1.417000000     1.646000000
C    -0.403000000     0.457000000     1.184000000
H    -0.788000000     1.038000000     2.018000000
C     0.358000000     1.139000000     0.239000000
H     0.637000000     2.177000000     0.446000000
C     0.733000000     0.487000000    -0.942000000
H     1.324000000     0.977000000    -1.712000000
C     0.458000000    -0.848000000    -1.142000000
H     0.786000000    -1.364000000    -2.041000000
C    -0.311000000    -1.530000000    -0.194000000
C    -0.800000000    -2.949000000    -0.501000000
O    -1.492000000    -3.438000000     0.337000000
O    -0.623000000    -3.446000000    -1.607000000
O     3.200000000     1.304000000     1.620000000
H     3.216000000     2.070000000     1.047000000
H     2.392000000     1.400000000     2.126000000
O     3.498000000    -5.575000000    -1.452000000
H     2.564000000    -5.781000000    -1.471000000
H     3.608000000    -4.900000000    -2.122000000
O    -4.138000000    -6.347000000     1.750000000
H    -3.181000000    -6.359000000     1.735000000
H    -4.396000000    -7.109000000     1.232000000
O     2.961000000    -0.039000000     4.995000000
H     2.758000000    -0.610000000     4.255000000
H     2.494000000     0.775000000     4.804000000
O    -3.990000000    -2.973000000     1.343000000
H    -4.216000000    -2.128000000     0.955000000
H    -3.070000000    -3.103000000     1.115000000
O     0.625000000    -5.683000000    -1.243000000
H     0.385000000    -4.756000000    -1.272000000
H     0.033000000    -6.103000000    -1.867000000
O     3.614000000     6.443000000     2.102000000
H     3.781000000     6.343000000     3.039000000
H     2.670000000     6.592000000     2.041000000
O     1.917000000    -1.802000000     2.763000000
H     1.134000000    -1.358000000     2.438000000
H     2.461000000    -1.927000000     1.985000000
O    -3.265000000    -5.428000000    -0.710000000
H    -2.533000000    -4.821000000    -0.599000000
H    -3.748000000    -5.374000000     0.115000000
O    -2.075000000    -2.514000000     4.405000000
H    -1.401000000    -2.959000000     3.891000000
H    -2.547000000    -3.221000000     4.845000000
O    -0.423000000    -3.818000000     2.695000000
H     0.489000000    -3.827000000     2.405000000
H    -0.930000000    -3.730000000     1.887000000
O     1.152000000    -0.944000000    -5.089000000
H     1.709000000    -0.523000000    -4.434000000
H     1.529000000    -0.681000000    -5.929000000
O    -0.209000000    -4.528000000    -4.230000000
H    -0.282000000    -4.207000000    -3.331000000
H    -0.514000000    -3.799000000    -4.770000000
O     3.298000000    -1.265000000     0.549000000
H     3.488000000    -0.407000000     0.928000000
H     2.638000000    -1.089000000    -0.123000000
O    -1.550000000    -6.980000000    -2.402000000
H    -2.010000000    -6.331000000    -1.869000000
H    -1.913000000    -6.868000000    -3.281000000
O    -5.523000000    -0.478000000     0.280000000
H    -6.290000000    -0.595000000     0.841000000
H    -5.876000000    -0.465000000    -0.610000000
O    -0.903000000     7.273000000    -1.433000000
H    -1.052000000     6.814000000    -0.606000000
H    -0.406000000     6.653000000    -1.966000000
O    -1.653000000    -0.546000000     6.332000000
H    -1.623000000    -1.298000000     5.741000000
H    -2.520000000    -0.166000000     6.192000000
O    -3.217000000     0.180000000    -2.362000000
H    -2.929000000     0.713000000    -3.103000000
H    -3.052000000    -0.721000000    -2.637000000
O     2.029000000     1.877000000    -5.526000000
H     2.006000000     2.265000000    -4.652000000
H     1.122000000     1.918000000    -5.831000000
O     4.428000000     2.146000000    -2.070000000
H     4.566000000     2.566000000    -2.919000000
H     3.776000000     2.695000000    -1.634000000
O     2.493000000    -3.316000000    -3.116000000
H     1.577000000    -3.589000000    -3.179000000
H     2.460000000    -2.360000000    -3.151000000
O    -1.353000000    -2.174000000    -5.468000000
H    -1.346000000    -2.275000000    -6.420000000
H    -0.557000000    -1.679000000    -5.274000000
O    -1.936000000     5.559000000     0.326000000
H    -2.134000000     4.908000000     0.999000000
H    -2.792000000     5.825000000    -0.010000000
O     1.539000000    -5.726000000     1.279000000
H     2.414000000    -6.112000000     1.264000000
H     1.252000000    -5.746000000     0.367000000
O     1.021000000     3.192000000    -3.258000000
H     1.109000000     4.086000000    -2.927000000
H     0.090000000     2.992000000    -3.163000000
O     3.369000000    -0.708000000    -3.029000000
H     4.268000000    -1.019000000    -3.130000000
H     3.456000000     0.137000000    -2.587000000
O     2.920000000     3.489000000    -0.019000000
H     2.056000000     3.822000000     0.222000000
H     3.459000000     4.274000000    -0.119000000
O    -0.626000000     3.251000000     4.293000000
H    -1.335000000     3.483000000     4.891000000
H    -1.034000000     3.246000000     3.427000000
O     4.351000000     5.670000000    -0.625000000
H     5.117000000     6.082000000    -1.025000000
H     4.225000000     6.145000000     0.197000000
O    -2.580000000     3.428000000     1.939000000
H    -2.872000000     2.711000000     1.376000000
H    -3.316000000     3.583000000     2.531000000
O     1.890000000     2.809000000     4.048000000
H     2.032000000     3.691000000     3.702000000
H     0.964000000     2.792000000     4.289000000
O     1.834000000     6.157000000    -2.383000000
H     2.558000000     5.941000000    -1.794000000
H     2.213000000     6.770000000    -3.013000000
O    -3.933000000     3.757000000    -1.177000000
H    -3.500000000     3.755000000    -2.031000000
H    -3.538000000     3.023000000    -0.707000000
O    -2.976000000    -3.325000000    -2.760000000
H    -2.085000000    -3.301000000    -2.410000000
H    -3.398000000    -4.045000000    -2.292000000
O    -4.026000000    -4.666000000     3.912000000
H    -4.117000000    -4.015000000     3.216000000
H    -4.165000000    -5.506000000     3.474000000
O     0.770000000     4.880000000     1.161000000
H     0.876000000     5.462000000     1.913000000
H    -0.129000000     5.026000000     0.869000000
O    -3.328000000     1.355000000     0.188000000
H    -2.993000000     0.862000000    -0.561000000
H    -4.060000000     0.830000000     0.513000000
O     5.582000000    -2.656000000    -0.204000000
H     5.945000000    -2.419000000    -1.057000000
H     4.706000000    -2.270000000    -0.200000000
O    -0.118000000    -6.240000000     4.287000000
H    -0.703000000    -5.677000000     3.780000000
H    -0.600000000    -6.421000000     5.094000000
O    -2.227000000     1.672000000    -4.490000000
H    -1.458000000     1.877000000    -5.022000000
H    -2.769000000     1.120000000    -5.054000000
O    -1.488000000    -6.615000000     1.383000000
H    -1.313000000    -7.367000000     0.817000000
H    -0.625000000    -6.237000000     1.553000000
O    -2.417000000     4.060000000    -3.636000000
H    -2.394000000     4.561000000    -4.451000000
H    -2.431000000     3.146000000    -3.918000000
O     4.044000000    -3.050000000    -5.760000000
H     3.533000000    -3.254000000    -4.976000000
H     4.427000000    -3.888000000    -6.020000000
O     1.066000000     6.649000000     3.558000000
H     0.461000000     6.365000000     4.243000000
H     0.700000000     7.476000000     3.243000000
O    -5.560000000     0.284000000     4.341000000
H    -5.480000000     0.092000000     5.275000000
H    -4.675000000     0.164000000     3.996000000
O    -3.199000000    -0.054000000     3.195000000
H    -2.582000000    -0.686000000     3.564000000
H    -2.755000000     0.291000000     2.421000000
O    -6.608000000    -3.883000000     1.155000000
H    -5.660000000    -3.765000000     1.214000000
H    -6.952000000    -3.465000000     1.944000000
