158
-3035.68450
C    -0.031000000    -1.240000000     0.771000000
H    -0.095000000    -2.148000000     1.365000000
C    -0.371000000    -0.013000000     1.303000000
H    -0.861000000     0.219000000     2.245000000
C    -0.240000000     1.108000000     0.468000000
H    -0.263000000     2.074000000     0.849000000
C     0.085000000     0.914000000    -0.882000000
H     0.243000000     1.736000000    -1.575000000
C     0.425000000    -0.318000000    -1.397000000
H     0.794000000    -0.384000000    -2.418000000
C     0.421000000    -1.415000000    -0.540000000
C     0.784000000    -2.762000000    -1.021000000
O     1.166000000    -3.673000000    -0.278000000
O     0.824000000    -2.960000000    -2.222000000
O     2.878000000     4.102000000    -2.102000000
H     3.459000000     3.484000000    -1.659000000
H     2.160000000     4.242000000    -1.485000000
O     0.266000000     4.702000000    -0.893000000
H     0.411000000     4.629000000     0.050000000
H    -0.061000000     5.593000000    -1.017000000
O    -4.212000000    -0.816000000     3.478000000
H    -4.614000000     0.052000000     3.438000000
H    -3.607000000    -0.765000000     4.218000000
O    -4.839000000     1.033000000     0.190000000
H    -3.960000000     1.097000000    -0.186000000
H    -4.890000000     0.140000000     0.529000000
O    -3.643000000    -3.420000000     2.686000000
H    -3.624000000    -2.531000000     3.040000000
H    -4.567000000    -3.585000000     2.501000000
O     1.920000000    -6.981000000    -3.164000000
H     1.266000000    -6.418000000    -3.579000000
H     2.212000000    -6.485000000    -2.399000000
O     0.795000000     7.219000000     2.529000000
H     0.274000000     6.828000000     3.230000000
H     0.412000000     8.088000000     2.404000000
O     0.982000000    -1.725000000    -6.978000000
H     0.037000000    -1.620000000    -6.871000000
H     1.337000000    -1.616000000    -6.096000000
O     3.476000000    -3.071000000     0.941000000
H     2.770000000    -3.439000000     0.409000000
H     4.061000000    -2.656000000     0.307000000
O     2.548000000     1.337000000    -3.954000000
H     2.410000000     2.268000000    -3.777000000
H     2.934000000     0.995000000    -3.148000000
O     2.762000000    -5.685000000    -0.879000000
H     3.145000000    -5.872000000    -0.022000000
H     2.107000000    -5.009000000    -0.706000000
O     0.404000000     4.598000000     1.771000000
H     0.314000000     5.547000000     1.862000000
H     0.094000000     4.247000000     2.605000000
O     3.049000000    -6.062000000     1.959000000
H     3.319000000    -6.136000000     2.874000000
H     2.104000000    -5.914000000     2.000000000
O    -0.197000000     5.907000000     4.594000000
H    -0.095000000     4.973000000     4.412000000
H    -0.718000000     5.939000000     5.396000000
O     0.150000000     3.145000000     4.172000000
H     0.210000000     3.407000000     5.091000000
H     0.851000000     2.503000000     4.060000000
O     3.806000000    -0.156000000    -6.107000000
H     4.113000000    -1.010000000    -5.802000000
H     3.184000000     0.128000000    -5.437000000
O    -3.517000000     6.389000000    -0.822000000
H    -3.088000000     6.946000000    -1.473000000
H    -3.502000000     5.514000000    -1.209000000
O    -2.751000000     5.162000000     1.896000000
H    -3.072000000     5.299000000     1.005000000
H    -2.861000000     4.223000000     2.048000000
O     3.569000000    -3.186000000     3.579000000
H     3.644000000    -3.158000000     2.625000000
H     2.801000000    -2.649000000     3.775000000
O    -2.666000000    -6.275000000    -3.562000000
H    -1.790000000    -5.888000000    -3.572000000
H    -2.527000000    -7.190000000    -3.803000000
O    -4.462000000     1.574000000    -3.618000000
H    -3.914000000     1.371000000    -4.375000000
H    -3.929000000     1.328000000    -2.862000000
O    -3.474000000     3.575000000    -1.552000000
H    -3.916000000     3.357000000    -2.373000000
H    -3.201000000     2.730000000    -1.195000000
O     1.231000000     3.741000000    -4.915000000
H     0.408000000     3.908000000    -4.455000000
H     1.365000000     4.518000000    -5.457000000
O     2.926000000     0.089000000     1.323000000
H     2.857000000    -0.813000000     1.636000000
H     2.133000000     0.225000000     0.805000000
O     1.574000000    -1.427000000     4.090000000
H     0.732000000    -1.866000000     3.975000000
H     1.381000000    -0.683000000     4.661000000
O     3.979000000     2.655000000     0.094000000
H     3.795000000     1.733000000     0.272000000
H     4.840000000     2.807000000     0.482000000
O    -2.451000000    -1.212000000     5.777000000
H    -1.690000000    -0.640000000     5.678000000
H    -2.157000000    -1.901000000     6.372000000
O    -0.209000000     0.370000000     5.568000000
H     0.140000000     0.727000000     6.385000000
H    -0.086000000     1.071000000     4.928000000
O     5.231000000    -1.514000000    -0.495000000
H     4.814000000    -1.158000000    -1.280000000
H     5.932000000    -0.894000000    -0.294000000
O    -3.055000000    -3.478000000    -0.318000000
H    -3.210000000    -3.578000000     0.622000000
H    -3.905000000    -3.656000000    -0.721000000
O    -0.341000000    -8.142000000    -2.060000000
H    -0.714000000    -7.276000000    -1.898000000
H     0.499000000    -7.966000000    -2.484000000
O     1.538000000    -1.372000000    -4.494000000
H     1.293000000    -1.942000000    -3.765000000
H     1.956000000    -0.619000000    -4.078000000
O     3.274000000     5.566000000     1.532000000
H     2.458000000     5.896000000     1.909000000
H     3.095000000     4.644000000     1.345000000
O    -1.041000000    -5.441000000    -1.052000000
H    -0.453000000    -4.775000000    -1.409000000
H    -1.755000000    -4.943000000    -0.654000000
O    -3.275000000    -1.460000000    -2.256000000
H    -4.150000000    -1.429000000    -1.870000000
H    -2.840000000    -2.183000000    -1.805000000
O     0.390000000    -5.114000000     2.005000000
H     0.410000000    -4.765000000     1.114000000
H    -0.041000000    -4.432000000     2.519000000
O     3.446000000    -2.987000000    -2.820000000
H     3.565000000    -3.848000000    -2.419000000
H     2.502000000    -2.833000000    -2.782000000
O    -2.517000000     2.858000000     4.044000000
H    -1.561000000     2.888000000     4.076000000
H    -2.798000000     3.562000000     4.629000000
O     2.139000000     1.426000000     4.019000000
H     2.508000000     0.665000000     3.570000000
H     2.875000000     2.031000000     4.107000000
O    -0.866000000     3.858000000    -3.177000000
H    -0.394000000     4.109000000    -2.383000000
H    -1.715000000     3.547000000    -2.863000000
O     4.915000000    -2.078000000    -4.756000000
H     5.687000000    -2.643000000    -4.744000000
H     4.361000000    -2.415000000    -4.052000000
O    -1.752000000    -3.860000000    -5.410000000
H    -2.298000000    -3.434000000    -4.748000000
H    -2.377000000    -4.233000000    -6.031000000
O    -5.454000000     3.489000000     1.370000000
H    -5.447000000     2.866000000     2.097000000
H    -5.275000000     2.955000000     0.596000000
O     0.128000000    -4.837000000    -3.850000000
H    -0.444000000    -4.380000000    -4.467000000
H     0.372000000    -4.169000000    -3.210000000
O    -0.936000000    -3.329000000     3.493000000
H    -0.816000000    -3.898000000     4.253000000
H    -1.853000000    -3.450000000     3.246000000
O     4.688000000     0.185000000    -2.547000000
H     4.796000000    -0.235000000    -3.400000000
H     5.187000000     0.999000000    -2.616000000
O    -2.717000000     1.059000000    -1.347000000
H    -2.812000000     0.107000000    -1.309000000
H    -1.773000000     1.207000000    -1.293000000
O    -4.986000000     1.779000000     4.015000000
H    -5.480000000     2.295000000     4.652000000
H    -4.073000000     2.024000000     4.165000000
