158
-3000.59665
C    -0.783000000    -0.647000000     1.113000000
H    -1.358000000    -0.977000000     1.974000000
C    -0.871000000     0.702000000     0.678000000
H    -1.462000000     1.394000000     1.274000000
C    -0.069000000     1.174000000    -0.356000000
H    -0.003000000     2.291000000    -0.536000000
C     0.774000000     0.266000000    -1.086000000
H     1.260000000     0.704000000    -1.955000000
C     0.763000000    -1.068000000    -0.685000000
H     1.331000000    -1.804000000    -1.249000000
C     0.002000000    -1.536000000     0.420000000
C     0.257000000    -2.929000000     0.903000000
O    -0.563000000    -3.418000000     1.643000000
O     1.100000000    -3.685000000     0.414000000
O     4.534000000    -1.029000000    -0.893000000
H     5.237000000    -0.626000000    -0.384000000
H     4.745000000    -1.963000000    -0.893000000
O     1.122000000     5.567000000    -0.144000000
H     0.945000000     6.485000000     0.063000000
H     0.464000000     5.079000000     0.350000000
O     3.540000000     2.185000000     2.493000000
H     3.401000000     3.115000000     2.317000000
H     4.472000000     2.046000000     2.328000000
O     0.421000000    -5.798000000    -0.853000000
H     1.300000000    -6.150000000    -0.994000000
H     0.557000000    -5.027000000    -0.303000000
O     2.054000000    -5.994000000     2.348000000
H     2.128000000    -5.553000000     3.195000000
H     1.913000000    -5.286000000     1.720000000
O     3.517000000    -0.861000000    -3.323000000
H     3.895000000     0.017000000    -3.292000000
H     3.669000000    -1.219000000    -2.448000000
O    -3.435000000     2.790000000     2.770000000
H    -4.320000000     3.103000000     2.954000000
H    -3.561000000     1.914000000     2.406000000
O    -1.057000000    -5.516000000     3.129000000
H    -0.427000000    -6.152000000     2.791000000
H    -0.915000000    -4.732000000     2.597000000
O    -3.051000000    -6.365000000     4.838000000
H    -2.202000000    -6.328000000     4.397000000
H    -3.447000000    -5.510000000     4.667000000
O    -0.677000000    -1.202000000    -5.821000000
H    -0.270000000    -1.723000000    -5.128000000
H    -0.024000000    -0.535000000    -6.033000000
O    -1.303000000     4.300000000    -3.545000000
H    -0.933000000     5.169000000    -3.390000000
H    -1.799000000     4.393000000    -4.359000000
O    -3.288000000    -1.681000000    -3.259000000
H    -2.702000000    -2.374000000    -2.955000000
H    -2.848000000    -0.868000000    -3.011000000
O     1.664000000    -0.050000000    -6.930000000
H     1.296000000     0.300000000    -7.741000000
H     2.037000000     0.713000000    -6.487000000
O     4.772000000    -1.599000000    -5.674000000
H     4.131000000    -1.228000000    -5.068000000
H     4.762000000    -1.006000000    -6.426000000
O     3.447000000    -2.816000000     3.189000000
H     3.101000000    -2.006000000     2.815000000
H     2.787000000    -3.088000000     3.826000000
O    -0.111000000     0.207000000     4.547000000
H     0.250000000     0.941000000     4.050000000
H     0.549000000     0.021000000     5.215000000
O     3.116000000     3.391000000    -1.709000000
H     2.600000000     3.342000000    -0.904000000
H     2.483000000     3.637000000    -2.384000000
O     2.706000000     4.866000000     2.311000000
H     3.225000000     5.668000000     2.368000000
H     1.996000000     5.082000000     1.708000000
O    -1.252000000     1.618000000    -3.549000000
H    -1.210000000     2.574000000    -3.568000000
H    -0.501000000     1.356000000    -3.017000000
O    -5.187000000    -5.026000000     2.259000000
H    -4.636000000    -4.826000000     1.502000000
H    -4.765000000    -4.572000000     2.989000000
O     3.606000000    -3.827000000    -0.884000000
H     3.231000000    -4.656000000    -1.183000000
H     3.016000000    -3.534000000    -0.190000000
O    -5.041000000     0.077000000     5.671000000
H    -4.434000000    -0.614000000     5.935000000
H    -4.923000000     0.150000000     4.724000000
O    -2.989000000    -4.088000000     0.770000000
H    -2.347000000    -3.594000000     1.280000000
H    -3.438000000    -3.426000000     0.244000000
O    -1.339000000    -3.366000000    -2.559000000
H    -0.985000000    -3.514000000    -1.682000000
H    -0.604000000    -3.004000000    -3.055000000
O     2.248000000    -0.198000000     2.252000000
H     1.343000000     0.071000000     2.095000000
H     2.766000000     0.586000000     2.068000000
O    -1.489000000    -2.303000000     3.964000000
H    -1.168000000    -2.639000000     3.127000000
H    -1.136000000    -1.415000000     4.016000000
O    -1.116000000    -6.172000000    -3.150000000
H    -1.545000000    -5.320000000    -3.074000000
H    -0.441000000    -6.162000000    -2.471000000
O     5.659000000     4.514000000    -0.671000000
H     4.901000000     4.103000000    -1.087000000
H     5.290000000     5.233000000    -0.159000000
O     1.244000000    -8.452000000     2.259000000
H     0.913000000    -8.645000000     3.137000000
H     1.577000000    -7.557000000     2.320000000
O     1.031000000     2.362000000     3.514000000
H     0.441000000     2.721000000     2.852000000
H     1.897000000     2.396000000     3.108000000
O    -2.875000000     5.783000000     0.336000000
H    -2.324000000     6.560000000     0.434000000
H    -3.620000000     6.082000000    -0.184000000
O    -0.882000000     1.736000000    -6.421000000
H    -1.623000000     1.550000000    -6.997000000
H    -1.209000000     1.546000000    -5.542000000
O     3.487000000     2.106000000    -5.669000000
H     3.922000000     1.323000000    -6.006000000
H     4.155000000     2.790000000    -5.714000000
O    -1.946000000     5.616000000     3.808000000
H    -2.492000000     6.339000000     3.500000000
H    -2.497000000     4.840000000     3.706000000
O    -2.108000000     1.682000000     5.357000000
H    -2.261000000     1.972000000     4.457000000
H    -1.618000000     0.865000000     5.265000000
O     1.118000000    -2.562000000    -3.597000000
H     1.848000000    -1.945000000    -3.555000000
H     1.444000000    -3.283000000    -4.135000000
O     4.876000000     1.225000000    -2.486000000
H     4.715000000     0.758000000    -1.666000000
H     4.514000000     2.099000000    -2.340000000
O    -5.621000000     2.111000000    -0.295000000
H    -5.563000000     1.271000000    -0.750000000
H    -5.455000000     2.764000000    -0.975000000
O    -4.134000000     1.292000000    -3.947000000
H    -3.242000000     1.630000000    -4.026000000
H    -4.694000000     2.047000000    -4.132000000
O     1.521000000     3.572000000    -3.815000000
H     2.239000000     3.231000000    -4.349000000
H     0.952000000     4.023000000    -4.439000000
O    -2.181000000    -6.757000000     0.082000000
H    -2.639000000    -5.977000000     0.397000000
H    -1.322000000    -6.435000000    -0.193000000
O    -3.782000000    -3.877000000     4.238000000
H    -4.034000000    -3.651000000     5.133000000
H    -3.081000000    -3.261000000     4.024000000
O     0.001000000     6.639000000    -2.317000000
H     0.708000000     7.256000000    -2.128000000
H     0.147000000     5.913000000    -1.711000000
O    -4.976000000     0.347000000     3.016000000
H    -5.914000000     0.479000000     2.879000000
H    -4.752000000    -0.390000000     2.447000000
O     2.940000000    -6.703000000    -1.419000000
H     3.015000000    -7.635000000    -1.213000000
H     3.576000000    -6.561000000    -2.121000000
O    -0.450000000    -4.556000000     5.839000000
H     0.092000000    -3.770000000     5.767000000
H    -0.868000000    -4.638000000     4.982000000
O    -4.359000000    -2.046000000    -0.288000000
H    -5.082000000    -1.975000000     0.335000000
H    -4.285000000    -1.172000000    -0.671000000
O    -0.397000000     3.883000000     1.763000000
H    -0.724000000     3.298000000     1.080000000
H    -1.183000000     4.291000000     2.126000000
