158
-3019.87110
C    -1.059000000    -0.315000000     0.934000000
H    -1.765000000    -0.482000000     1.743000000
C    -0.570000000     0.942000000     0.651000000
H    -0.961000000     1.729000000     1.292000000
C     0.349000000     1.143000000    -0.368000000
H     0.748000000     2.136000000    -0.682000000
C     0.844000000     0.025000000    -1.079000000
H     1.495000000     0.130000000    -1.944000000
C     0.332000000    -1.204000000    -0.760000000
H     0.757000000    -2.113000000    -1.179000000
C    -0.608000000    -1.436000000     0.235000000
C    -0.899000000    -2.808000000     0.818000000
O    -1.663000000    -2.988000000     1.759000000
O    -0.425000000    -3.756000000     0.239000000
O     0.476000000    -4.389000000    -3.164000000
H     0.785000000    -4.550000000    -2.272000000
H    -0.363000000    -4.848000000    -3.213000000
O    -0.728000000     7.655000000     1.945000000
H    -1.278000000     7.386000000     2.680000000
H    -0.583000000     6.851000000     1.447000000
O    -5.195000000     0.793000000     4.495000000
H    -4.310000000     0.428000000     4.510000000
H    -5.492000000     0.740000000     5.403000000
O     3.402000000     2.088000000     1.702000000
H     3.601000000     2.934000000     2.101000000
H     3.147000000     2.300000000     0.804000000
O    -0.149000000    -7.227000000    -1.101000000
H     0.385000000    -7.918000000    -0.709000000
H     0.098000000    -6.434000000    -0.626000000
O     1.828000000    -4.840000000    -0.591000000
H     1.085000000    -4.376000000    -0.204000000
H     2.531000000    -4.191000000    -0.611000000
O     4.030000000    -0.376000000    -4.907000000
H     4.170000000     0.381000000    -5.476000000
H     3.602000000    -1.022000000    -5.468000000
O    -3.009000000    -2.218000000    -2.005000000
H    -3.591000000    -2.345000000    -2.754000000
H    -2.175000000    -1.953000000    -2.391000000
O    -0.686000000    -4.424000000     3.629000000
H    -0.947000000    -3.989000000     4.441000000
H    -1.047000000    -3.872000000     2.936000000
O     0.882000000     2.967000000    -5.536000000
H     1.039000000     3.232000000    -4.630000000
H     1.754000000     2.927000000    -5.929000000
O    -0.353000000    -6.128000000     1.695000000
H    -0.300000000    -5.253000000     1.310000000
H    -0.554000000    -5.972000000     2.618000000
O     1.953000000    -5.344000000     4.345000000
H     1.133000000    -4.975000000     4.019000000
H     1.712000000    -6.209000000     4.677000000
O     0.445000000    -4.642000000    -5.915000000
H     1.094000000    -5.281000000    -6.212000000
H     0.615000000    -4.545000000    -4.978000000
O    -2.935000000     4.170000000    -2.929000000
H    -2.443000000     3.787000000    -3.656000000
H    -2.363000000     4.060000000    -2.169000000
O     1.959000000     3.812000000    -3.158000000
H     2.665000000     3.213000000    -2.914000000
H     1.966000000     4.481000000    -2.474000000
O    -1.052000000     5.442000000    -1.155000000
H    -1.165000000     6.078000000    -1.862000000
H    -0.126000000     5.505000000    -0.923000000
O     6.770000000    -0.383000000    -2.414000000
H     7.332000000    -0.593000000    -3.160000000
H     5.954000000    -0.854000000    -2.589000000
O     1.432000000    -1.479000000     3.989000000
H     1.974000000    -1.282000000     3.225000000
H     1.847000000    -2.244000000     4.387000000
O    -2.725000000    -3.225000000    -5.220000000
H    -2.076000000    -2.803000000    -4.657000000
H    -2.329000000    -3.214000000    -6.091000000
O     1.332000000     3.147000000     3.916000000
H     1.239000000     3.463000000     3.017000000
H     0.682000000     3.643000000     4.413000000
O     3.816000000     2.079000000    -1.810000000
H     4.008000000     1.143000000    -1.756000000
H     4.653000000     2.482000000    -2.042000000
O     1.653000000     5.666000000    -0.514000000
H     1.736000000     6.380000000    -1.146000000
H     2.381000000     5.797000000     0.093000000
O    -1.971000000     0.562000000    -2.234000000
H    -1.681000000     0.795000000    -1.352000000
H    -2.604000000    -0.144000000    -2.099000000
O    -3.154000000    -2.467000000     3.728000000
H    -2.441000000    -2.601000000     3.104000000
H    -2.916000000    -1.666000000     4.195000000
O     5.081000000    -4.067000000    -1.138000000
H     4.653000000    -4.029000000    -1.993000000
H     4.665000000    -3.369000000    -0.631000000
O    -3.418000000     3.450000000     4.126000000
H    -3.720000000     2.551000000     4.255000000
H    -4.111000000     3.864000000     3.611000000
O    -1.506000000    -6.640000000    -3.401000000
H    -0.822000000    -6.862000000    -2.769000000
H    -2.220000000    -6.290000000    -2.867000000
O    -0.930000000    -1.912000000    -3.951000000
H    -0.251000000    -2.534000000    -3.688000000
H    -0.447000000    -1.178000000    -4.331000000
O     2.575000000    -0.491000000     1.657000000
H     1.835000000    -0.315000000     1.077000000
H     3.045000000     0.342000000     1.705000000
O     3.243000000    -7.375000000    -0.658000000
H     3.113000000    -7.492000000    -1.599000000
H     3.064000000    -6.447000000    -0.504000000
O    -2.816000000    -7.479000000     1.166000000
H    -1.903000000    -7.385000000     1.439000000
H    -3.116000000    -6.582000000     1.018000000
O    -3.852000000    -6.449000000    -1.604000000
H    -4.158000000    -5.731000000    -1.050000000
H    -4.501000000    -7.142000000    -1.479000000
O     0.303000000     0.833000000     4.542000000
H     0.570000000     0.093000000     3.996000000
H     0.702000000     1.596000000     4.124000000
O    -5.296000000    -3.561000000    -0.766000000
H    -6.216000000    -3.687000000    -0.999000000
H    -4.825000000    -3.644000000    -1.595000000
O    -0.104000000     4.640000000     1.857000000
H     0.500000000     5.040000000     1.231000000
H    -0.968000000     4.746000000     1.459000000
O    -1.738000000     3.628000000    -5.231000000
H    -2.176000000     3.817000000    -6.061000000
H    -0.806000000     3.627000000    -5.447000000
O     2.409000000     6.294000000     2.400000000
H     2.104000000     5.934000000     3.232000000
H     2.671000000     7.191000000     2.609000000
O    -1.073000000     4.469000000     5.185000000
H    -1.810000000     3.911000000     4.940000000
H    -1.056000000     5.152000000     4.515000000
O     0.784000000    -0.061000000    -5.565000000
H     0.818000000     0.889000000    -5.675000000
H     1.554000000    -0.268000000    -5.035000000
O     4.315000000    -2.584000000     1.208000000
H     3.684000000    -1.890000000     1.396000000
H     4.761000000    -2.734000000     2.041000000
O    -4.586000000     1.233000000    -0.048000000
H    -4.547000000     0.321000000     0.239000000
H    -3.685000000     1.547000000     0.030000000
O    -4.336000000    -1.398000000     0.767000000
H    -4.837000000    -1.795000000     0.055000000
H    -3.703000000    -2.071000000     1.019000000
O    -2.451000000     0.127000000     4.962000000
H    -2.436000000    -0.270000000     5.832000000
H    -1.612000000     0.582000000     4.892000000
O     4.347000000    -1.767000000    -2.619000000
H     3.597000000    -2.317000000    -2.844000000
H     4.453000000    -1.186000000    -3.372000000
O    -3.760000000    -5.177000000     4.521000000
H    -3.608000000    -4.954000000     3.603000000
H    -3.737000000    -4.336000000     4.978000000
O    -3.591000000    -4.754000000     1.014000000
H    -4.199000000    -4.120000000     0.635000000
H    -2.826000000    -4.235000000     1.263000000
O    -6.501000000    -1.277000000     3.080000000
H    -5.645000000    -1.629000000     2.835000000
H    -6.333000000    -0.356000000     3.278000000
O    -2.489000000     5.382000000     0.875000000
H    -3.343000000     5.787000000     0.721000000
H    -2.058000000     5.400000000     0.021000000
