158
-3040.18897
C    -0.826000000    -0.864000000     0.943000000
H    -1.580000000    -1.409000000     1.505000000
C    -0.932000000     0.470000000     0.809000000
H    -1.743000000     0.910000000     1.385000000
C    -0.101000000     1.182000000    -0.013000000
H    -0.171000000     2.298000000     0.158000000
C     0.956000000     0.602000000    -0.739000000
H     1.600000000     1.238000000    -1.341000000
C     1.002000000    -0.787000000    -0.659000000
H     1.725000000    -1.347000000    -1.247000000
C     0.085000000    -1.506000000     0.088000000
C     0.287000000    -3.037000000     0.134000000
O    -0.085000000    -3.689000000     1.106000000
O     0.920000000    -3.646000000    -0.740000000
O     0.151000000    -4.246000000    -3.552000000
H     0.388000000    -4.033000000    -2.650000000
H     0.984000000    -4.253000000    -4.024000000
O     5.220000000     0.216000000     2.007000000
H     4.359000000     0.093000000     2.407000000
H     5.035000000     0.333000000     1.075000000
O     2.263000000    -6.401000000    -3.548000000
H     2.937000000    -7.022000000    -3.271000000
H     1.993000000    -5.964000000    -2.741000000
O     3.607000000    -4.476000000    -0.301000000
H     2.677000000    -4.342000000    -0.485000000
H     3.689000000    -4.325000000     0.640000000
O     0.415000000     6.446000000     3.407000000
H    -0.465000000     6.205000000     3.696000000
H     0.555000000     5.933000000     2.612000000
O    -2.232000000     5.698000000    -4.745000000
H    -1.852000000     5.403000000    -5.573000000
H    -1.479000000     5.969000000    -4.219000000
O    -6.391000000     2.889000000     1.022000000
H    -5.821000000     3.572000000     1.375000000
H    -5.800000000     2.306000000     0.545000000
O    -2.924000000    -3.689000000    -1.825000000
H    -2.951000000    -3.131000000    -2.603000000
H    -2.938000000    -4.582000000    -2.169000000
O     1.060000000    -5.983000000     2.043000000
H     1.994000000    -5.901000000     2.238000000
H     0.822000000    -5.141000000     1.655000000
O     1.161000000     4.068000000    -2.545000000
H     1.653000000     3.861000000    -1.750000000
H     0.869000000     4.971000000    -2.417000000
O     1.150000000    -6.392000000    -0.888000000
H     0.792000000    -5.530000000    -0.677000000
H     0.955000000    -6.928000000    -0.120000000
O    -3.035000000     0.432000000    -4.669000000
H    -2.799000000     1.249000000    -5.108000000
H    -2.558000000     0.460000000    -3.839000000
O    -2.823000000     7.352000000     1.894000000
H    -3.148000000     7.351000000     2.795000000
H    -2.924000000     6.446000000     1.602000000
O    -4.090000000     4.617000000    -2.133000000
H    -3.216000000     4.252000000    -2.270000000
H    -4.679000000     3.995000000    -2.560000000
O     5.222000000     2.942000000    -2.228000000
H     5.693000000     3.665000000    -1.813000000
H     5.614000000     2.869000000    -3.098000000
O    -1.655000000     3.146000000    -2.373000000
H    -0.708000000     3.070000000    -2.488000000
H    -1.959000000     2.242000000    -2.281000000
O    -2.221000000     5.521000000     4.446000000
H    -2.341000000     5.435000000     5.392000000
H    -2.435000000     4.656000000     4.098000000
O     3.118000000     3.876000000    -0.754000000
H     3.748000000     3.447000000    -1.333000000
H     3.556000000     3.905000000     0.097000000
O     0.777000000     4.866000000     1.058000000
H     1.480000000     4.764000000     0.416000000
H     0.993000000     4.241000000     1.750000000
O     1.467000000    -2.534000000     3.151000000
H     0.989000000    -2.922000000     2.419000000
H     0.842000000    -2.544000000     3.877000000
O    -1.764000000    -5.973000000    -4.333000000
H    -1.078000000    -6.638000000    -4.281000000
H    -1.293000000    -5.140000000    -4.320000000
O     1.086000000     1.950000000     5.121000000
H     1.242000000     2.159000000     4.200000000
H     1.175000000     2.787000000     5.576000000
O     4.442000000     0.448000000    -0.788000000
H     4.057000000    -0.055000000    -1.506000000
H     4.899000000     1.169000000    -1.220000000
O     3.847000000     4.066000000     1.813000000
H     3.794000000     4.978000000     2.098000000
H     3.182000000     3.614000000     2.332000000
O    -2.125000000     0.255000000    -2.245000000
H    -2.705000000    -0.445000000    -1.946000000
H    -1.411000000     0.264000000    -1.607000000
O     4.486000000    -3.475000000    -2.743000000
H     4.330000000    -3.899000000    -1.900000000
H     5.193000000    -3.985000000    -3.140000000
O    -3.201000000     7.265000000    -2.049000000
H    -3.291000000     6.318000000    -2.155000000
H    -2.451000000     7.496000000    -2.597000000
O     2.444000000     2.820000000    -5.110000000
H     2.064000000     3.327000000    -4.393000000
H     1.820000000     2.918000000    -5.829000000
O    -1.778000000    -4.815000000     3.522000000
H    -1.446000000    -4.591000000     2.653000000
H    -1.505000000    -4.086000000     4.078000000
O    -1.738000000    -2.224000000    -4.157000000
H    -1.093000000    -2.902000000    -3.955000000
H    -1.227000000    -1.416000000    -4.212000000
O     2.615000000    -0.188000000     2.530000000
H     2.106000000    -0.035000000     1.733000000
H     2.382000000    -1.077000000     2.796000000
O     4.078000000    -7.639000000    -0.112000000
H     4.297000000    -7.782000000    -1.033000000
H     3.644000000    -6.786000000    -0.098000000
O    -2.034000000    -8.552000000    -0.282000000
H    -1.911000000    -7.795000000     0.291000000
H    -2.983000000    -8.675000000    -0.315000000
O    -1.251000000     0.516000000     4.273000000
H    -2.087000000     0.607000000     4.731000000
H    -0.611000000     0.918000000     4.860000000
O    -5.569000000    -2.753000000     1.352000000
H    -5.910000000    -1.946000000     1.738000000
H    -5.345000000    -3.301000000     2.104000000
O     1.541000000     2.444000000     2.482000000
H     2.137000000     1.698000000     2.556000000
H     0.714000000     2.062000000     2.189000000
O    -4.347000000     4.727000000     1.627000000
H    -4.056000000     4.294000000     2.430000000
H    -3.638000000     4.573000000     1.003000000
O    -2.226000000     2.898000000    -5.498000000
H    -1.421000000     3.110000000    -5.971000000
H    -2.150000000     3.373000000    -4.671000000
O     0.395000000    -0.468000000    -4.451000000
H     0.995000000     0.215000000    -4.152000000
H     0.551000000    -0.529000000    -5.393000000
O     3.963000000    -3.791000000     2.395000000
H     4.480000000    -3.015000000     2.612000000
H     3.116000000    -3.640000000     2.814000000
O    -3.953000000    -1.361000000    -0.454000000
H    -3.550000000    -2.153000000    -0.809000000
H    -4.637000000    -1.682000000     0.133000000
O    -5.109000000     1.138000000    -0.723000000
H    -4.598000000     0.341000000    -0.582000000
H    -4.881000000     1.414000000    -1.611000000
O    -0.084000000     6.576000000    -3.092000000
H     0.774000000     6.560000000    -3.515000000
H    -0.260000000     7.506000000    -2.944000000
O    -0.853000000    -2.478000000     4.730000000
H    -1.244000000    -2.516000000     5.603000000
H    -0.921000000    -1.557000000     4.478000000
O     3.920000000    -0.785000000    -3.252000000
H     4.175000000    -1.687000000    -3.059000000
H     3.865000000    -0.750000000    -4.207000000
O    -3.251000000     2.880000000     3.570000000
H    -4.125000000     2.577000000     3.814000000
H    -2.800000000     2.093000000     3.266000000
O    -2.160000000    -5.534000000     0.554000000
H    -1.292000000    -5.174000000     0.738000000
H    -2.430000000    -5.105000000    -0.258000000
O    -1.948000000     4.632000000     0.378000000
H    -1.837000000     4.111000000    -0.418000000
H    -1.109000000     5.078000000     0.491000000
