158
-3026.44984
C    -0.593000000    -0.955000000     1.062000000
H    -1.214000000    -1.561000000     1.717000000
C    -1.273000000    -0.027000000     0.223000000
H    -2.336000000     0.085000000     0.416000000
C    -0.665000000     0.797000000    -0.748000000
H    -1.184000000     1.487000000    -1.338000000
C     0.704000000     0.718000000    -0.743000000
H     1.334000000     1.277000000    -1.430000000
C     1.465000000    -0.064000000     0.054000000
H     2.550000000    -0.047000000    -0.016000000
C     0.796000000    -0.966000000     0.946000000
C     1.680000000    -1.952000000     1.713000000
O     1.182000000    -2.856000000     2.367000000
O     2.821000000    -1.641000000     1.972000000
O     2.309000000    -3.841000000    -1.001000000
H     3.263000000    -3.770000000    -0.983000000
H     2.064000000    -3.559000000    -1.882000000
O    -2.930000000     3.989000000     2.256000000
H    -3.781000000     3.958000000     2.693000000
H    -2.540000000     3.132000000     2.431000000
O     2.035000000    -2.902000000     7.082000000
H     1.386000000    -3.391000000     7.589000000
H     1.526000000    -2.471000000     6.396000000
O     4.976000000    -5.687000000     1.383000000
H     4.456000000    -6.480000000     1.511000000
H     4.527000000    -5.019000000     1.902000000
O    -3.999000000     0.051000000    -6.065000000
H    -3.970000000     0.895000000    -5.615000000
H    -4.801000000     0.084000000    -6.586000000
O     3.497000000     2.477000000     2.001000000
H     4.042000000     1.732000000     1.749000000
H     2.991000000     2.162000000     2.750000000
O    -4.959000000     1.169000000     3.810000000
H    -4.437000000     1.966000000     3.906000000
H    -5.856000000     1.483000000     3.697000000
O     5.710000000    -0.138000000    -0.965000000
H     6.269000000    -0.797000000    -1.376000000
H     5.000000000    -0.001000000    -1.592000000
O     0.906000000     4.937000000     0.528000000
H     0.096000000     5.099000000     0.043000000
H     0.782000000     4.071000000     0.917000000
O     5.207000000    -3.720000000    -0.904000000
H     5.880000000    -3.049000000    -1.011000000
H     5.054000000    -3.759000000     0.040000000
O     2.335000000     5.137000000    -4.533000000
H     1.387000000     5.008000000    -4.531000000
H     2.567000000     5.219000000    -3.608000000
O    -1.727000000     1.109000000    -4.099000000
H    -2.192000000     1.562000000    -4.803000000
H    -1.177000000     1.784000000    -3.702000000
O     3.169000000    -4.375000000     2.794000000
H     2.722000000    -4.802000000     3.525000000
H     2.667000000    -3.574000000     2.641000000
O    -1.968000000    -3.793000000    -3.808000000
H    -2.203000000    -4.264000000    -3.008000000
H    -1.688000000    -2.929000000    -3.504000000
O    -1.540000000     6.418000000    -0.579000000
H    -2.216000000     5.741000000    -0.607000000
H    -1.629000000     6.810000000     0.290000000
O     3.651000000     0.111000000    -2.950000000
H     2.866000000    -0.426000000    -2.843000000
H     3.512000000     0.577000000    -3.774000000
O     2.054000000     5.885000000    -1.865000000
H     1.866000000     5.548000000    -0.989000000
H     2.673000000     6.600000000    -1.719000000
O    -4.713000000     2.003000000    -1.553000000
H    -5.535000000     2.315000000    -1.174000000
H    -4.623000000     1.108000000    -1.226000000
O     3.903000000    -1.604000000     4.582000000
H     3.632000000    -2.314000000     5.164000000
H     3.236000000    -1.588000000     3.897000000
O    -1.475000000    -1.398000000    -2.802000000
H    -1.715000000    -0.864000000    -3.559000000
H    -1.690000000    -0.851000000    -2.046000000
O    -3.112000000    -5.089000000     4.337000000
H    -2.328000000    -4.745000000     4.764000000
H    -3.800000000    -4.462000000     4.559000000
O     4.064000000    -4.964000000     6.177000000
H     4.739000000    -4.358000000     6.480000000
H     3.238000000    -4.531000000     6.395000000
O     0.501000000    -1.798000000     5.069000000
H    -0.416000000    -2.051000000     4.962000000
H     0.901000000    -1.979000000     4.219000000
O     5.438000000    -2.601000000     1.820000000
H     5.516000000    -1.650000000     1.891000000
H     4.515000000    -2.780000000     1.998000000
O    -5.258000000    -0.731000000    -0.134000000
H    -5.903000000    -0.595000000     0.559000000
H    -4.584000000    -1.277000000     0.270000000
O     1.281000000    -1.652000000    -3.297000000
H     0.801000000    -2.235000000    -3.886000000
H     0.666000000    -1.472000000    -2.586000000
O     0.572000000     1.150000000     4.321000000
H     1.505000000     0.943000000     4.276000000
H     0.204000000     0.477000000     4.894000000
O    -1.353000000    -4.101000000     6.098000000
H    -1.095000000    -4.873000000     6.601000000
H    -1.755000000    -3.518000000     6.742000000
O    -2.695000000    -5.344000000    -1.518000000
H    -3.532000000    -5.683000000    -1.834000000
H    -2.810000000    -5.267000000    -0.571000000
O     6.454000000     0.459000000     3.639000000
H     5.769000000     0.424000000     2.971000000
H     7.205000000     0.023000000     3.236000000
O    -0.954000000     2.800000000    -6.464000000
H    -1.644000000     3.313000000    -6.884000000
H    -0.886000000     2.008000000    -6.998000000
O    -4.180000000    -2.727000000     2.127000000
H    -3.786000000    -2.174000000     2.801000000
H    -4.939000000    -3.124000000     2.555000000
O    -0.245000000     7.150000000    -2.942000000
H     0.622000000     6.745000000    -2.922000000
H    -0.634000000     6.927000000    -2.097000000
O     7.820000000    -3.759000000     2.836000000
H     6.888000000    -3.663000000     2.641000000
H     7.858000000    -3.848000000     3.788000000
O     3.282000000     1.035000000     4.416000000
H     4.072000000     1.520000000     4.652000000
H     3.515000000     0.116000000     4.550000000
O    -4.847000000     2.312000000    -4.582000000
H    -4.322000000     2.402000000    -3.787000000
H    -5.628000000     2.839000000    -4.415000000
O     4.863000000     0.115000000     1.509000000
H     5.175000000     0.123000000     0.604000000
H     4.141000000    -0.513000000     1.507000000
O    -0.212000000     4.171000000    -4.331000000
H    -1.035000000     4.459000000    -3.937000000
H    -0.454000000     3.417000000    -4.869000000
O    -2.964000000     4.519000000    -3.305000000
H    -3.600000000     5.233000000    -3.349000000
H    -3.185000000     4.050000000    -2.501000000
O    -2.529000000     3.852000000    -0.653000000
H    -2.383000000     3.876000000     0.293000000
H    -3.050000000     3.061000000    -0.794000000
O     3.674000000     2.477000000    -4.869000000
H     2.996000000     1.999000000    -5.346000000
H     3.372000000     3.385000000    -4.869000000
O    -2.738000000    -4.848000000     1.139000000
H    -3.135000000    -4.199000000     1.721000000
H    -1.862000000    -4.988000000     1.498000000
O     1.692000000     1.018000000    -5.942000000
H     0.966000000     1.569000000    -6.233000000
H     1.312000000     0.143000000    -5.862000000
O    -3.209000000    -0.984000000     4.015000000
H    -2.950000000    -0.765000000     4.910000000
H    -3.701000000    -0.221000000     3.714000000
O     1.219000000    -5.454000000     4.700000000
H     0.978000000    -6.355000000     4.481000000
H     0.402000000    -4.961000000     4.616000000
O    -5.376000000    -2.418000000    -2.931000000
H    -4.815000000    -2.602000000    -3.684000000
H    -4.873000000    -1.799000000    -2.403000000
O     0.067000000    -5.511000000     1.823000000
H     0.784000000    -5.994000000     1.412000000
H     0.412000000    -4.626000000     1.944000000
O    -0.766000000     2.245000000     2.179000000
H    -0.420000000     1.805000000     1.403000000
H    -0.552000000     1.657000000     2.903000000
