158
-3033.76219
C    -0.099000000     0.009000000     1.451000000
H    -0.365000000     0.063000000     2.503000000
C    -0.878000000     0.765000000     0.552000000
H    -1.667000000     1.402000000     0.944000000
C    -0.596000000     0.739000000    -0.798000000
H    -1.158000000     1.332000000    -1.518000000
C     0.348000000    -0.181000000    -1.306000000
H     0.604000000    -0.197000000    -2.362000000
C     1.051000000    -1.007000000    -0.427000000
H     1.821000000    -1.665000000    -0.823000000
C     0.878000000    -0.905000000     0.980000000
C     1.645000000    -1.737000000     1.940000000
O     1.499000000    -1.505000000     3.157000000
O     2.310000000    -2.728000000     1.604000000
O    -4.277000000     4.574000000     1.735000000
H    -4.779000000     5.386000000     1.660000000
H    -4.827000000     3.913000000     1.313000000
O    -0.627000000     4.297000000    -5.543000000
H    -0.095000000     3.565000000    -5.231000000
H    -1.529000000     3.981000000    -5.479000000
O    -6.704000000     0.708000000    -2.018000000
H    -6.246000000     0.359000000    -1.253000000
H    -6.026000000     0.789000000    -2.688000000
O    -0.811000000    -6.910000000     1.784000000
H    -0.687000000    -6.008000000     2.078000000
H    -0.338000000    -6.959000000     0.954000000
O    -2.791000000    -2.401000000     1.441000000
H    -2.393000000    -2.502000000     0.576000000
H    -2.937000000    -3.297000000     1.744000000
O    -1.745000000     6.940000000    -2.659000000
H    -1.863000000     6.759000000    -3.591000000
H    -1.485000000     6.099000000    -2.283000000
O    -1.179000000    -2.130000000     7.210000000
H    -0.683000000    -2.021000000     6.398000000
H    -1.605000000    -1.284000000     7.346000000
O     2.497000000    -0.758000000    -4.262000000
H     2.653000000     0.174000000    -4.416000000
H     1.569000000    -0.882000000    -4.464000000
O     5.591000000     0.822000000    -2.173000000
H     4.706000000     1.080000000    -2.434000000
H     5.664000000    -0.092000000    -2.447000000
O     4.140000000    -2.347000000    -5.758000000
H     3.674000000    -1.834000000    -5.098000000
H     3.516000000    -3.025000000    -6.018000000
O     3.372000000    -4.701000000     3.461000000
H     3.037000000    -4.058000000     2.835000000
H     3.686000000    -4.177000000     4.198000000
O    -0.694000000    -0.323000000    -4.592000000
H    -1.608000000    -0.144000000    -4.370000000
H    -0.740000000    -0.834000000    -5.400000000
O     3.259000000    -3.533000000    -2.353000000
H     2.345000000    -3.284000000    -2.488000000
H     3.218000000    -4.278000000    -1.754000000
O     4.559000000    -2.013000000     2.600000000
H     3.682000000    -2.240000000     2.293000000
H     4.588000000    -2.332000000     3.502000000
O     4.957000000    -3.249000000     5.149000000
H     5.524000000    -2.547000000     5.467000000
H     5.110000000    -3.974000000     5.756000000
O     1.064000000     5.062000000    -1.176000000
H     1.554000000     4.248000000    -1.061000000
H     0.152000000     4.817000000    -1.017000000
O    -1.967000000     4.953000000    -0.653000000
H    -2.878000000     5.189000000    -0.830000000
H    -1.832000000     5.189000000     0.264000000
O     6.536000000    -3.113000000    -0.190000000
H     5.823000000    -3.528000000     0.296000000
H     6.945000000    -2.522000000     0.442000000
O     2.311000000     1.978000000     1.455000000
H     3.072000000     1.408000000     1.341000000
H     1.824000000     1.586000000     2.180000000
O    -1.975000000     5.705000000     2.192000000
H    -2.839000000     5.297000000     2.242000000
H    -1.445000000     5.221000000     2.825000000
O    -0.239000000    -3.997000000    -4.359000000
H    -0.429000000    -3.599000000    -5.209000000
H    -0.881000000    -4.701000000    -4.275000000
O     1.036000000    -4.233000000     5.903000000
H     0.258000000    -3.863000000     5.486000000
H     1.517000000    -3.472000000     6.230000000
O     1.667000000    -6.542000000     4.244000000
H     2.404000000    -6.042000000     3.893000000
H     1.287000000    -5.972000000     4.912000000
O     2.885000000    -4.988000000     0.177000000
H     3.576000000    -5.042000000     0.837000000
H     2.343000000    -4.251000000     0.457000000
O    -2.874000000    -0.806000000     3.910000000
H    -2.843000000    -0.224000000     3.150000000
H    -3.252000000    -1.618000000     3.574000000
O    -2.241000000     3.186000000    -2.825000000
H    -2.172000000     3.794000000    -2.089000000
H    -3.182000000     3.104000000    -2.981000000
O    -0.637000000    -2.178000000     4.365000000
H     0.230000000    -1.974000000     4.016000000
H    -1.196000000    -1.466000000     4.051000000
O    -1.911000000    -2.500000000    -1.125000000
H    -2.481000000    -2.524000000    -1.894000000
H    -1.466000000    -1.655000000    -1.184000000
O     0.549000000    -6.297000000    -0.874000000
H     1.368000000    -5.979000000    -0.493000000
H     0.287000000    -5.610000000    -1.487000000
O     7.303000000    -1.824000000     2.419000000
H     6.386000000    -1.973000000     2.651000000
H     7.576000000    -2.635000000     1.991000000
O    -4.134000000    -0.461000000    -4.908000000
H    -4.666000000     0.327000000    -5.019000000
H    -3.946000000    -0.751000000    -5.800000000
O     5.647000000    -5.568000000     1.689000000
H     5.133000000    -5.402000000     2.480000000
H     5.844000000    -6.504000000     1.724000000
O    -5.091000000     2.365000000    -4.624000000
H    -4.539000000     2.835000000    -5.249000000
H    -5.864000000     2.921000000    -4.523000000
O    -5.173000000    -0.536000000     0.141000000
H    -5.613000000    -1.321000000     0.468000000
H    -4.241000000    -0.715000000     0.264000000
O    -2.833000000    -3.875000000     5.081000000
H    -2.304000000    -3.089000000     4.941000000
H    -2.640000000    -4.136000000     5.981000000
O     2.782000000    -0.029000000     4.925000000
H     3.613000000     0.138000000     4.480000000
H     2.320000000    -0.638000000     4.348000000
O     5.806000000    -2.041000000    -2.559000000
H     6.291000000    -2.402000000    -1.817000000
H     4.994000000    -2.546000000    -2.583000000
O     4.456000000     0.425000000     0.937000000
H     5.076000000     0.520000000     0.214000000
H     4.431000000    -0.516000000     1.109000000
O     0.303000000     2.201000000    -4.250000000
H    -0.352000000     2.618000000    -3.691000000
H    -0.027000000     1.313000000    -4.384000000
O    -3.803000000    -2.891000000    -3.135000000
H    -3.776000000    -2.099000000    -3.672000000
H    -4.653000000    -2.854000000    -2.696000000
O     2.359000000     2.625000000    -1.028000000
H     1.690000000     2.037000000    -1.378000000
H     2.343000000     2.471000000    -0.083000000
O     1.901000000    -1.902000000     6.870000000
H     2.723000000    -1.600000000     6.485000000
H     2.090000000    -1.984000000     7.805000000
O    -5.340000000     2.139000000     0.944000000
H    -6.294000000     2.074000000     0.907000000
H    -5.036000000     1.234000000     0.880000000
O     3.153000000     1.848000000    -4.105000000
H     2.310000000     2.190000000    -4.402000000
H     3.693000000     2.627000000    -3.968000000
O     0.376000000    -3.831000000    -1.767000000
H     0.090000000    -3.800000000    -2.680000000
H    -0.427000000    -3.989000000    -1.270000000
O     2.136000000     2.203000000     5.845000000
H     1.355000000     1.955000000     6.340000000
H     2.503000000     1.371000000     5.545000000
O    -0.305000000    -4.417000000     2.354000000
H    -0.952000000    -4.050000000     2.956000000
H     0.395000000    -3.764000000     2.328000000
O     4.993000000     1.177000000     3.465000000
H     4.840000000     0.883000000     2.567000000
H     5.319000000     2.072000000     3.371000000
