158
-3043.42091
C    -0.094000000     0.896000000     1.187000000
H    -0.289000000     1.513000000     2.061000000
C    -0.447000000     1.192000000    -0.083000000
H    -0.891000000     2.127000000    -0.416000000
C    -0.285000000     0.297000000    -1.130000000
H    -0.771000000     0.517000000    -2.076000000
C     0.322000000    -0.883000000    -0.877000000
H     0.292000000    -1.633000000    -1.664000000
C     0.750000000    -1.212000000     0.404000000
H     1.111000000    -2.227000000     0.545000000
C     0.513000000    -0.327000000     1.454000000
C     0.872000000    -0.763000000     2.812000000
O     0.444000000    -0.147000000     3.805000000
O     1.635000000    -1.741000000     2.998000000
O    -3.638000000     3.890000000    -0.795000000
H    -3.925000000     3.359000000    -1.539000000
H    -3.908000000     3.389000000    -0.026000000
O     1.697000000    -0.994000000    -4.219000000
H     1.407000000    -1.486000000    -4.987000000
H     1.324000000    -0.121000000    -4.338000000
O    -3.039000000     2.347000000     5.838000000
H    -2.268000000     2.512000000     6.381000000
H    -3.712000000     2.066000000     6.457000000
O    -4.831000000     6.014000000     0.148000000
H    -4.512000000     5.139000000    -0.072000000
H    -4.933000000     6.000000000     1.099000000
O     3.930000000    -1.272000000     4.603000000
H     3.074000000    -1.101000000     4.211000000
H     3.816000000    -1.062000000     5.530000000
O     0.391000000    -1.680000000    -6.439000000
H     0.035000000    -1.099000000    -7.112000000
H    -0.361000000    -2.195000000    -6.146000000
O     3.285000000    -1.303000000    -1.945000000
H     2.883000000    -1.252000000    -2.812000000
H     2.988000000    -2.142000000    -1.593000000
O     0.271000000    -4.386000000    -1.249000000
H     0.060000000    -4.084000000    -2.132000000
H     1.206000000    -4.208000000    -1.151000000
O    -4.611000000     2.702000000    -3.229000000
H    -4.516000000     3.467000000    -3.798000000
H    -5.507000000     2.401000000    -3.381000000
O     3.859000000    -5.792000000     2.473000000
H     3.672000000    -6.508000000     3.080000000
H     3.597000000    -5.002000000     2.948000000
O    -1.194000000     5.716000000    -4.894000000
H    -1.650000000     6.239000000    -4.234000000
H    -0.682000000     5.086000000    -4.388000000
O     3.958000000    -2.394000000     1.662000000
H     4.372000000    -1.534000000     1.743000000
H     3.120000000    -2.300000000     2.115000000
O     2.778000000     1.112000000    -0.983000000
H     1.929000000     0.950000000    -0.574000000
H     3.083000000     0.246000000    -1.255000000
O    -2.087000000    -0.013000000     4.430000000
H    -1.139000000    -0.076000000     4.311000000
H    -2.294000000     0.900000000     4.232000000
O    -1.184000000     4.338000000     3.134000000
H    -0.577000000     4.681000000     3.790000000
H    -0.906000000     3.432000000     3.000000000
O    -2.104000000    -2.533000000    -5.260000000
H    -2.626000000    -2.857000000    -5.993000000
H    -2.677000000    -1.907000000    -4.816000000
O     1.320000000    -6.164000000     5.789000000
H     1.405000000    -5.440000000     5.168000000
H     1.631000000    -5.805000000     6.620000000
O     4.125000000    -4.118000000     5.145000000
H     4.987000000    -4.116000000     5.561000000
H     3.993000000    -3.213000000     4.864000000
O    -0.319000000    -7.564000000     1.009000000
H     0.494000000    -7.568000000     1.515000000
H    -0.447000000    -6.646000000     0.769000000
O    -4.658000000    -2.336000000     0.567000000
H    -4.038000000    -1.687000000     0.896000000
H    -5.317000000    -1.823000000     0.100000000
O    -1.605000000     5.316000000    -1.333000000
H    -2.107000000     6.129000000    -1.392000000
H    -2.241000000     4.662000000    -1.043000000
O    -0.763000000    -4.598000000     2.107000000
H    -1.455000000    -5.117000000     2.516000000
H    -1.229000000    -3.963000000     1.564000000
O    -0.532000000    -4.599000000    -4.088000000
H    -1.099000000    -5.346000000    -4.277000000
H    -1.057000000    -3.834000000    -4.325000000
O    -2.474000000    -4.970000000    -0.920000000
H    -2.580000000    -5.457000000    -1.738000000
H    -1.559000000    -4.686000000    -0.928000000
O     5.995000000    -0.049000000     2.462000000
H     6.353000000     0.756000000     2.087000000
H     5.341000000     0.251000000     3.092000000
O    -2.094000000     0.013000000    -7.309000000
H    -2.382000000     0.761000000    -6.787000000
H    -2.861000000    -0.558000000    -7.354000000
O     2.869000000    -1.201000000    -7.297000000
H     1.962000000    -1.242000000    -6.996000000
H     2.980000000    -1.987000000    -7.831000000
O     5.809000000    -4.686000000     0.915000000
H     5.464000000    -3.795000000     0.953000000
H     5.225000000    -5.194000000     1.479000000
O    -2.748000000     2.664000000    -6.586000000
H    -2.693000000     3.330000000    -7.271000000
H    -3.194000000     3.103000000    -5.861000000
O    -5.079000000    -3.098000000    -4.981000000
H    -4.855000000    -2.177000000    -4.845000000
H    -5.795000000    -3.263000000    -4.368000000
O    -0.596000000    -1.797000000     8.414000000
H    -1.450000000    -1.397000000     8.247000000
H    -0.196000000    -1.876000000     7.548000000
O     0.463000000    -1.931000000     6.040000000
H     1.161000000    -2.579000000     5.945000000
H     0.494000000    -1.425000000     5.228000000
O     0.910000000     2.420000000     4.688000000
H     0.506000000     2.349000000     5.552000000
H     0.888000000     1.528000000     4.340000000
O    -4.526000000     2.759000000     1.707000000
H    -4.259000000     3.237000000     2.492000000
H    -4.734000000     1.879000000     2.022000000
O     3.176000000    -3.855000000    -1.035000000
H     3.797000000    -4.425000000    -1.487000000
H     3.350000000    -4.002000000    -0.105000000
O    -3.736000000    -0.340000000    -4.158000000
H    -4.475000000     0.183000000    -4.469000000
H    -3.144000000     0.296000000    -3.757000000
O    -3.822000000    -1.702000000     5.618000000
H    -3.177000000    -1.043000000     5.361000000
H    -3.640000000    -2.449000000     5.048000000
O     0.216000000     3.915000000    -2.822000000
H    -0.161000000     4.566000000    -2.231000000
H     1.121000000     3.817000000    -2.524000000
O     3.801000000     1.660000000    -4.073000000
H     2.846000000     1.701000000    -4.025000000
H     4.016000000     0.763000000    -3.814000000
O     0.172000000     0.972000000     9.150000000
H     0.294000000     0.109000000     8.755000000
H     0.996000000     1.145000000     9.606000000
O     3.099000000     3.822000000    -2.037000000
H     2.886000000     3.112000000    -1.432000000
H     3.519000000     3.388000000    -2.779000000
O     0.730000000     1.881000000    -4.580000000
H     0.336000000     2.523000000    -3.989000000
H     1.001000000     2.392000000    -5.342000000
O    -0.591000000     2.943000000     7.254000000
H    -0.420000000     3.881000000     7.343000000
H    -0.673000000     2.628000000     8.154000000
O     3.972000000     2.662000000     0.980000000
H     3.548000000     2.159000000     0.284000000
H     4.908000000     2.511000000     0.847000000
O    -1.984000000    -2.193000000     2.284000000
H    -2.386000000    -2.511000000     3.092000000
H    -1.279000000    -1.616000000     2.578000000
O     1.824000000    -5.798000000    -3.663000000
H     1.903000000    -5.592000000    -2.732000000
H     0.975000000    -5.437000000    -3.918000000
O     1.408000000    -4.342000000     3.696000000
H     0.649000000    -4.696000000     3.232000000
H     1.483000000    -3.442000000     3.380000000
O     3.787000000     1.969000000     3.645000000
H     3.711000000     2.280000000     2.742000000
H     2.891000000     1.987000000     3.980000000
