158
-3037.39109
C     0.357000000     0.815000000     1.159000000
H     0.476000000     1.553000000     1.948000000
C    -0.098000000     1.319000000    -0.025000000
H    -0.359000000     2.357000000    -0.216000000
C    -0.227000000     0.464000000    -1.113000000
H    -0.516000000     0.935000000    -1.986000000
C     0.064000000    -0.868000000    -1.040000000
H    -0.150000000    -1.533000000    -1.872000000
C     0.528000000    -1.386000000     0.210000000
H     0.700000000    -2.441000000     0.407000000
C     0.671000000    -0.566000000     1.378000000
C     0.922000000    -1.115000000     2.706000000
O     0.762000000    -0.465000000     3.723000000
O     1.224000000    -2.284000000     2.731000000
O    -2.592000000     0.586000000    -4.007000000
H    -2.663000000     1.384000000    -3.483000000
H    -3.279000000     0.014000000    -3.665000000
O     2.825000000    -1.377000000     7.227000000
H     2.555000000    -0.481000000     7.027000000
H     2.622000000    -1.872000000     6.434000000
O    -3.009000000     3.689000000     4.111000000
H    -3.609000000     2.951000000     4.002000000
H    -2.180000000     3.287000000     4.371000000
O    -5.457000000     1.856000000     1.018000000
H    -5.263000000     1.050000000     0.539000000
H    -4.957000000     2.533000000     0.561000000
O    -2.367000000     0.911000000     7.076000000
H    -1.817000000     1.648000000     7.342000000
H    -1.768000000     0.316000000     6.625000000
O    -3.992000000     5.238000000     1.734000000
H    -3.544000000     4.594000000     2.283000000
H    -4.521000000     5.748000000     2.347000000
O     2.658000000    -2.770000000     4.947000000
H     1.923000000    -2.775000000     4.333000000
H     3.415000000    -2.537000000     4.410000000
O    -5.843000000     1.340000000    -3.421000000
H    -6.583000000     1.481000000    -4.012000000
H    -5.672000000     0.400000000    -3.472000000
O     4.938000000     0.764000000     6.182000000
H     4.164000000     0.404000000     5.750000000
H     5.537000000     0.972000000     5.465000000
O     3.064000000    -5.537000000     2.574000000
H     3.883000000    -5.962000000     2.829000000
H     3.339000000    -4.722000000     2.153000000
O    -4.879000000     3.306000000    -1.665000000
H    -5.654000000     3.867000000    -1.653000000
H    -5.111000000     2.591000000    -2.258000000
O     1.299000000     1.698000000    -5.252000000
H     1.360000000     0.745000000    -5.184000000
H     2.202000000     2.003000000    -5.167000000
O     3.042000000     0.400000000    -0.364000000
H     2.158000000     0.115000000    -0.132000000
H     2.910000000     1.196000000    -0.878000000
O     2.309000000    -4.853000000     6.865000000
H     3.054000000    -5.248000000     6.412000000
H     2.220000000    -3.986000000     6.469000000
O    -1.980000000     3.310000000    -3.324000000
H    -2.085000000     4.067000000    -3.900000000
H    -2.492000000     3.528000000    -2.545000000
O    -0.718000000     1.808000000     4.259000000
H    -0.030000000     2.181000000     4.810000000
H    -0.367000000     0.963000000     3.978000000
O     5.246000000    -0.995000000     1.495000000
H     5.360000000    -0.221000000     2.047000000
H     5.008000000    -0.644000000     0.637000000
O     1.882000000    -1.615000000    -5.224000000
H     0.975000000    -1.704000000    -4.932000000
H     2.403000000    -1.758000000    -4.434000000
O    -1.569000000    -2.031000000     4.076000000
H    -1.359000000    -2.696000000     4.732000000
H    -0.724000000    -1.646000000     3.845000000
O     0.645000000     6.062000000     2.978000000
H     0.286000000     6.948000000     3.008000000
H     0.693000000     5.854000000     2.045000000
O     0.525000000    -4.663000000     3.529000000
H     0.968000000    -3.894000000     3.171000000
H     1.181000000    -5.359000000     3.486000000
O    -3.043000000    -1.711000000    -0.577000000
H    -2.431000000    -0.985000000    -0.455000000
H    -2.573000000    -2.328000000    -1.138000000
O    -0.729000000    -3.790000000     6.249000000
H    -0.145000000    -4.268000000     5.660000000
H    -1.523000000    -4.323000000     6.284000000
O     0.212000000     5.486000000    -1.899000000
H    -0.668000000     5.439000000    -1.525000000
H     0.418000000     4.583000000    -2.141000000
O    -3.444000000    -3.682000000     1.341000000
H    -3.379000000    -2.919000000     0.767000000
H    -3.993000000    -3.389000000     2.068000000
O    -0.089000000    -5.060000000    -1.738000000
H     0.473000000    -5.659000000    -2.230000000
H    -0.885000000    -4.990000000    -2.265000000
O    -3.662000000     1.467000000    -6.503000000
H    -3.316000000     1.103000000    -5.689000000
H    -3.752000000     2.404000000    -6.327000000
O    -4.446000000    -1.373000000    -3.909000000
H    -4.760000000    -1.436000000    -4.811000000
H    -4.942000000    -2.040000000    -3.436000000
O    -2.232000000    -5.606000000     3.503000000
H    -1.350000000    -5.241000000     3.573000000
H    -2.737000000    -4.926000000     3.057000000
O     0.633000000     0.149000000     6.309000000
H     0.732000000     1.093000000     6.183000000
H     0.674000000    -0.216000000     5.425000000
O     1.579000000     2.737000000     5.555000000
H     1.454000000     3.338000000     6.290000000
H     2.322000000     3.100000000     5.073000000
O     0.165000000     3.901000000    -6.861000000
H    -0.663000000     3.865000000    -7.339000000
H     0.168000000     3.108000000    -6.325000000
O    -5.499000000    -0.811000000    -0.166000000
H    -5.960000000    -1.538000000     0.252000000
H    -4.612000000    -1.141000000    -0.309000000
O     0.661000000     3.024000000    -3.164000000
H     0.954000000     2.636000000    -3.989000000
H    -0.291000000     3.076000000    -3.249000000
O     3.219000000     0.297000000     4.222000000
H     3.287000000     0.977000000     3.551000000
H     2.391000000    -0.144000000     4.032000000
O     2.775000000    -4.114000000    -0.884000000
H     3.185000000    -3.647000000    -0.155000000
H     1.887000000    -4.301000000    -0.579000000
O    -2.532000000     4.775000000    -0.456000000
H    -3.332000000     4.596000000    -0.951000000
H    -2.840000000     5.135000000     0.376000000
O    -0.990000000    -1.512000000    -5.119000000
H    -1.558000000    -0.742000000    -5.122000000
H    -1.163000000    -1.934000000    -4.278000000
O    -4.190000000    -1.431000000     3.541000000
H    -3.283000000    -1.733000000     3.598000000
H    -4.330000000    -0.941000000     4.351000000
O    -2.309000000    -1.856000000    -7.607000000
H    -1.885000000    -1.963000000    -6.756000000
H    -1.893000000    -1.082000000    -7.986000000
O    -1.565000000    -6.004000000     0.404000000
H    -2.366000000    -5.486000000     0.480000000
H    -1.024000000    -5.520000000    -0.219000000
O     3.201000000    -2.336000000    -2.983000000
H     2.585000000    -2.726000000    -2.363000000
H     4.023000000    -2.802000000    -2.830000000
O    -0.161000000    -2.033000000     8.204000000
H    -0.158000000    -2.834000000     7.680000000
H     0.150000000    -1.354000000     7.604000000
O     2.769000000     3.608000000    -1.727000000
H     2.085000000     3.413000000    -2.368000000
H     3.437000000     4.079000000    -2.226000000
O     2.918000000     5.286000000     4.004000000
H     2.082000000     5.472000000     3.575000000
H     3.339000000     6.141000000     4.089000000
O     3.596000000    -3.067000000     1.454000000
H     2.743000000    -2.837000000     1.822000000
H     4.094000000    -2.249000000     1.473000000
O     1.745000000     5.181000000     0.494000000
H     1.136000000     5.281000000    -0.238000000
H     2.215000000     4.369000000     0.305000000
O    -2.423000000    -3.471000000    -2.764000000
H    -3.277000000    -3.057000000    -2.889000000
H    -2.580000000    -4.401000000    -2.928000000
