158
-3051.67687
C     0.337000000     1.394000000     0.570000000
H     0.401000000     2.343000000     1.096000000
C    -0.281000000     1.190000000    -0.668000000
H    -0.670000000     2.068000000    -1.178000000
C    -0.422000000    -0.100000000    -1.176000000
H    -0.921000000    -0.206000000    -2.140000000
C     0.051000000    -1.155000000    -0.425000000
H    -0.089000000    -2.158000000    -0.820000000
C     0.658000000    -1.032000000     0.775000000
H     0.933000000    -1.987000000     1.214000000
C     0.891000000     0.282000000     1.266000000
C     1.423000000     0.408000000     2.669000000
O     1.412000000     1.496000000     3.198000000
O     1.729000000    -0.528000000     3.312000000
O    -2.858000000     0.417000000    -3.842000000
H    -2.606000000     1.321000000    -3.652000000
H    -3.514000000     0.492000000    -4.535000000
O     3.048000000     6.926000000     2.935000000
H     2.798000000     6.265000000     2.289000000
H     3.839000000     6.575000000     3.343000000
O     2.692000000     3.354000000     7.904000000
H     1.875000000     3.414000000     8.398000000
H     2.418000000     3.353000000     6.987000000
O     2.464000000     4.842000000     1.034000000
H     3.026000000     4.646000000     0.285000000
H     2.773000000     4.257000000     1.726000000
O    -5.039000000    -4.170000000    -0.755000000
H    -5.844000000    -4.674000000    -0.877000000
H    -5.115000000    -3.807000000     0.128000000
O    -2.233000000    -0.160000000     1.523000000
H    -2.097000000     0.786000000     1.472000000
H    -1.955000000    -0.488000000     0.668000000
O     0.115000000    -3.440000000    -2.963000000
H    -0.346000000    -3.939000000    -2.288000000
H    -0.565000000    -2.899000000    -3.366000000
O    -2.170000000     3.073000000     1.583000000
H    -2.046000000     2.639000000     2.427000000
H    -2.496000000     3.944000000     1.807000000
O     2.629000000     0.062000000     5.898000000
H     2.378000000     0.005000000     4.976000000
H     3.528000000     0.391000000     5.881000000
O     2.918000000    -2.942000000    -2.851000000
H     1.988000000    -3.082000000    -3.032000000
H     3.300000000    -3.819000000    -2.871000000
O     3.585000000    -5.080000000     3.557000000
H     4.371000000    -5.476000000     3.933000000
H     3.902000000    -4.294000000     3.113000000
O     4.979000000     1.703000000     6.103000000
H     5.702000000     1.669000000     6.730000000
H     4.665000000     2.607000000     6.148000000
O    -2.550000000    -5.888000000    -3.908000000
H    -3.275000000    -6.468000000    -4.139000000
H    -2.141000000    -5.669000000    -4.745000000
O    -6.380000000     2.035000000    -2.463000000
H    -5.910000000     1.541000000    -1.791000000
H    -6.527000000     1.402000000    -3.166000000
O     1.819000000    -0.110000000    -3.425000000
H     1.171000000    -0.264000000    -2.737000000
H     2.323000000    -0.923000000    -3.466000000
O     3.386000000    -2.684000000     6.048000000
H     3.159000000    -1.756000000     5.987000000
H     2.609000000    -3.097000000     6.423000000
O    -2.519000000     3.229000000    -3.451000000
H    -2.818000000     4.089000000    -3.747000000
H    -2.673000000     3.234000000    -2.506000000
O     1.108000000     2.839000000     5.480000000
H     1.119000000     3.738000000     5.152000000
H     1.335000000     2.303000000     4.720000000
O     3.745000000    -1.153000000    -0.011000000
H     4.034000000    -0.442000000     0.560000000
H     3.111000000    -0.744000000    -0.601000000
O    -0.754000000     0.711000000     6.261000000
H    -0.123000000     0.054000000     5.967000000
H    -0.251000000     1.524000000     6.302000000
O     0.677000000    -3.245000000     6.848000000
H     0.566000000    -4.192000000     6.931000000
H    -0.216000000    -2.900000000     6.827000000
O    -0.546000000    -2.005000000     4.617000000
H    -0.075000000    -1.472000000     3.975000000
H     0.022000000    -2.761000000     4.763000000
O    -1.224000000     2.135000000     3.765000000
H    -0.374000000     2.003000000     3.346000000
H    -1.353000000     1.350000000     4.298000000
O    -4.305000000    -0.030000000    -1.318000000
H    -4.870000000    -0.780000000    -1.132000000
H    -3.789000000    -0.302000000    -2.077000000
O     1.955000000    -1.252000000     8.241000000
H     2.133000000    -0.654000000     7.515000000
H     1.348000000    -1.896000000     7.878000000
O     1.532000000     5.140000000    -2.843000000
H     2.210000000     4.518000000    -2.579000000
H     1.869000000     5.537000000    -3.646000000
O     4.542000000     1.087000000     1.632000000
H     3.804000000     1.684000000     1.758000000
H     5.113000000     1.251000000     2.382000000
O    -2.202000000    -4.028000000     1.584000000
H    -2.575000000    -3.147000000     1.550000000
H    -1.258000000    -3.891000000     1.504000000
O     0.432000000    -4.859000000     0.994000000
H     0.152000000    -5.216000000     0.151000000
H     1.292000000    -4.476000000     0.819000000
O     0.136000000    -0.015000000    -5.951000000
H    -0.308000000     0.833000000    -5.918000000
H     0.763000000     0.015000000    -5.229000000
O     4.018000000    -6.274000000    -0.399000000
H     3.820000000    -6.562000000    -1.290000000
H     3.444000000    -5.522000000    -0.256000000
O    -2.405000000     0.467000000    -8.274000000
H    -3.227000000     0.930000000    -8.115000000
H    -2.368000000    -0.198000000    -7.587000000
O    -0.355000000     3.522000000     7.792000000
H    -1.035000000     4.195000000     7.767000000
H    -0.080000000     3.426000000     6.880000000
O    -0.633000000     2.786000000    -5.547000000
H    -1.140000000     2.851000000    -4.737000000
H    -0.852000000     3.583000000    -6.030000000
O     2.754000000     1.883000000    -5.100000000
H     2.631000000     1.216000000    -4.424000000
H     1.898000000     2.304000000    -5.180000000
O     3.345000000     3.403000000     3.023000000
H     3.613000000     3.643000000     3.910000000
H     2.702000000     2.705000000     3.147000000
O     3.023000000    -3.489000000     0.873000000
H     3.432000000    -2.809000000     0.338000000
H     3.035000000    -3.134000000     1.762000000
O    -4.593000000     0.003000000    -6.011000000
H    -5.471000000     0.258000000    -5.727000000
H    -4.731000000    -0.784000000    -6.539000000
O    -1.398000000    -5.232000000    -1.373000000
H    -1.882000000    -5.411000000    -2.179000000
H    -2.076000000    -5.025000000    -0.729000000
O    -3.346000000     2.544000000    -0.847000000
H    -3.708000000     1.687000000    -1.073000000
H    -2.959000000     2.419000000     0.019000000
O    -1.866000000    -2.150000000    -3.989000000
H    -2.239000000    -1.272000000    -4.064000000
H    -2.573000000    -2.682000000    -3.624000000
O    -1.510000000    -1.944000000    -7.148000000
H    -1.661000000    -2.555000000    -6.427000000
H    -1.083000000    -1.192000000    -6.738000000
O     0.908000000    -5.866000000     3.502000000
H     0.474000000    -5.682000000     2.669000000
H     1.796000000    -5.527000000     3.390000000
O     1.267000000     5.443000000     4.670000000
H     1.851000000     6.093000000     4.278000000
H     0.756000000     5.937000000     5.311000000
O     0.290000000     7.197000000    -1.424000000
H     0.093000000     6.713000000    -0.622000000
H     0.585000000     6.528000000    -2.041000000
O     3.868000000    -2.223000000     3.267000000
H     3.156000000    -1.584000000     3.241000000
H     3.959000000    -2.444000000     4.194000000
O    -0.271000000     5.840000000     0.951000000
H    -0.745000000     5.763000000     1.779000000
H     0.588000000     5.457000000     1.130000000
O    -4.037000000    -3.691000000    -3.116000000
H    -4.514000000    -3.781000000    -2.291000000
H    -3.534000000    -4.502000000    -3.192000000
