158
-3043.14612
C     0.154000000     1.164000000     0.923000000
H     0.205000000     2.113000000     1.450000000
C    -0.254000000     1.275000000    -0.382000000
H    -0.289000000     2.236000000    -0.888000000
C    -0.432000000     0.119000000    -1.156000000
H    -0.627000000     0.181000000    -2.148000000
C    -0.221000000    -1.102000000    -0.571000000
H    -0.527000000    -1.945000000    -1.185000000
C     0.145000000    -1.256000000     0.722000000
H     0.446000000    -2.219000000     1.125000000
C     0.308000000    -0.088000000     1.512000000
C     0.987000000    -0.359000000     2.915000000
O     1.394000000     0.618000000     3.501000000
O     1.064000000    -1.439000000     3.457000000
O    -4.877000000    -1.902000000    -4.365000000
H    -4.769000000    -1.298000000    -3.630000000
H    -5.500000000    -1.464000000    -4.945000000
O     2.842000000     5.668000000     2.289000000
H     2.633000000     5.435000000     1.385000000
H     3.798000000     5.644000000     2.328000000
O     1.909000000     4.105000000     0.069000000
H     2.621000000     4.016000000    -0.564000000
H     2.055000000     3.395000000     0.695000000
O    -2.002000000     0.852000000     3.454000000
H    -2.531000000     1.149000000     2.713000000
H    -1.110000000     1.120000000     3.233000000
O    -4.078000000     4.126000000    -5.669000000
H    -3.734000000     3.381000000    -5.175000000
H    -3.963000000     4.875000000    -5.084000000
O    -0.291000000    -4.188000000    -2.340000000
H    -0.386000000    -4.385000000    -1.408000000
H    -1.182000000    -4.007000000    -2.638000000
O    -1.842000000     1.067000000     6.147000000
H    -2.002000000     0.822000000     5.236000000
H    -1.608000000     0.246000000     6.579000000
O    -4.208000000     2.120000000    -1.193000000
H    -5.133000000     1.876000000    -1.171000000
H    -4.213000000     3.075000000    -1.257000000
O     3.992000000    -0.194000000     5.879000000
H     3.081000000    -0.447000000     6.032000000
H     4.210000000    -0.585000000     5.033000000
O     3.157000000    -4.697000000    -0.922000000
H     2.864000000    -4.107000000    -1.616000000
H     2.556000000    -4.532000000    -0.196000000
O     3.213000000    -5.459000000     4.963000000
H     3.394000000    -4.696000000     4.414000000
H     2.258000000    -5.519000000     4.983000000
O     1.681000000    -1.051000000    -3.473000000
H     1.000000000    -1.712000000    -3.349000000
H     2.500000000    -1.546000000    -3.461000000
O     0.624000000    -5.321000000     5.629000000
H     0.477000000    -4.833000000     6.440000000
H     0.299000000    -6.202000000     5.818000000
O    -2.357000000    -0.042000000    -4.434000000
H    -2.564000000     0.876000000    -4.260000000
H    -2.760000000    -0.521000000    -3.710000000
O     1.923000000     2.254000000     5.764000000
H     1.912000000     3.088000000     5.295000000
H     1.600000000     1.617000000     5.128000000
O     3.186000000     0.591000000    -0.421000000
H     2.403000000     0.691000000    -0.962000000
H     2.881000000     0.745000000     0.473000000
O     1.342000000    -1.216000000     6.472000000
H     0.452000000    -1.233000000     6.825000000
H     1.222000000    -1.158000000     5.524000000
O     4.620000000     2.761000000     3.971000000
H     4.111000000     2.499000000     4.738000000
H     4.864000000     3.671000000     4.145000000
O     0.355000000    -6.916000000    -3.150000000
H    -0.413000000    -7.415000000    -2.869000000
H     0.282000000    -6.083000000    -2.684000000
O    -0.795000000    -3.288000000     3.983000000
H    -0.207000000    -2.553000000     3.809000000
H    -0.278000000    -3.884000000     4.526000000
O    -3.423000000     1.672000000     1.337000000
H    -3.524000000     1.853000000     0.402000000
H    -4.277000000     1.883000000     1.714000000
O    -3.211000000    -1.418000000     0.055000000
H    -3.434000000    -1.796000000     0.906000000
H    -2.365000000    -0.992000000     0.197000000
O     2.737000000    -0.576000000     8.652000000
H     3.107000000     0.267000000     8.388000000
H     2.136000000    -0.805000000     7.943000000
O     0.996000000     4.783000000    -5.515000000
H     0.573000000     3.927000000    -5.584000000
H     1.753000000     4.723000000    -6.098000000
O     5.266000000    -0.305000000     3.097000000
H     4.784000000     0.003000000     2.329000000
H     6.018000000     0.285000000     3.160000000
O    -2.593000000    -4.621000000     1.383000000
H    -2.338000000    -3.803000000     1.810000000
H    -3.550000000    -4.618000000     1.412000000
O    -0.130000000    -5.075000000     0.189000000
H    -0.937000000    -4.912000000     0.677000000
H     0.565000000    -4.994000000     0.842000000
O    -0.321000000    -0.862000000    -5.945000000
H    -1.027000000    -0.488000000    -5.418000000
H     0.477000000    -0.466000000    -5.593000000
O    -1.754000000     1.019000000    -7.630000000
H    -1.283000000     0.204000000    -7.458000000
H    -1.886000000     1.024000000    -8.578000000
O    -1.811000000     4.780000000     1.990000000
H    -2.677000000     4.583000000     1.635000000
H    -1.950000000     5.540000000     2.555000000
O    -0.105000000     2.112000000     7.927000000
H    -0.906000000     1.665000000     7.652000000
H     0.282000000     2.434000000     7.113000000
O    -0.058000000     2.573000000    -5.981000000
H    -0.876000000     2.380000000    -6.440000000
H     0.588000000     1.999000000    -6.392000000
O    -3.019000000     2.549000000    -3.817000000
H    -2.227000000     3.067000000    -3.960000000
H    -3.082000000     2.467000000    -2.865000000
O     2.534000000     1.713000000    -3.549000000
H     2.155000000     0.839000000    -3.453000000
H     1.890000000     2.198000000    -4.065000000
O     5.255000000     2.373000000    -3.211000000
H     4.381000000     1.983000000    -3.205000000
H     5.154000000     3.195000000    -2.731000000
O     2.881000000     2.251000000     2.024000000
H     3.670000000     2.433000000     2.535000000
H     2.319000000     1.755000000     2.619000000
O     1.976000000    -4.777000000     1.832000000
H     2.358000000    -4.121000000     2.416000000
H     2.546000000    -5.540000000     1.925000000
O    -4.526000000    -0.617000000    -7.157000000
H    -3.909000000    -0.110000000    -6.630000000
H    -4.794000000    -0.018000000    -7.854000000
O    -4.106000000    -0.450000000    -2.244000000
H    -3.738000000    -0.944000000    -1.512000000
H    -4.211000000     0.439000000    -1.905000000
O    -2.726000000    -3.215000000    -3.222000000
H    -3.426000000    -2.682000000    -3.599000000
H    -3.179000000    -3.959000000    -2.824000000
O    -3.222000000    -1.453000000     3.040000000
H    -2.738000000    -0.627000000     3.043000000
H    -2.756000000    -2.006000000     3.667000000
O    -1.206000000    -3.464000000    -5.736000000
H    -1.661000000    -3.314000000    -4.908000000
H    -0.824000000    -2.614000000    -5.956000000
O    -1.411000000    -1.693000000     7.419000000
H    -1.707000000    -2.595000000     7.297000000
H    -1.554000000    -1.518000000     8.349000000
O    -0.126000000     3.565000000     3.811000000
H    -0.551000000     3.869000000     3.009000000
H     0.507000000     2.911000000     3.514000000
O     2.271000000     4.908000000     4.721000000
H     2.484000000     5.140000000     3.817000000
H     1.459000000     5.381000000     4.905000000
O    -0.933000000     4.348000000    -3.195000000
H    -0.548000000     4.576000000    -2.349000000
H    -0.195000000     4.355000000    -3.804000000
O     3.259000000    -3.035000000     3.537000000
H     2.447000000    -2.559000000     3.712000000
H     3.906000000    -2.351000000     3.367000000
O    -0.463000000     5.437000000    -0.492000000
H    -0.959000000     5.246000000     0.304000000
H     0.413000000     5.094000000    -0.316000000
