158
-3058.28203
C     0.573000000     1.338000000     0.449000000
H     0.795000000     2.355000000     0.763000000
C    -0.245000000     1.051000000    -0.657000000
H    -0.543000000     1.891000000    -1.280000000
C    -0.735000000    -0.217000000    -0.936000000
H    -1.290000000    -0.255000000    -1.851000000
C    -0.313000000    -1.269000000    -0.212000000
H    -0.731000000    -2.258000000    -0.381000000
C     0.600000000    -1.075000000     0.839000000
H     0.998000000    -1.945000000     1.355000000
C     1.024000000     0.266000000     1.127000000
C     1.938000000     0.453000000     2.331000000
O     2.168000000     1.649000000     2.721000000
O     2.318000000    -0.488000000     2.993000000
O     0.717000000     1.385000000     7.196000000
H     0.559000000     0.607000000     6.660000000
H     0.765000000     2.104000000     6.566000000
O     3.284000000    -5.364000000    -0.609000000
H     3.632000000    -4.508000000    -0.358000000
H     2.576000000    -5.526000000     0.014000000
O     4.917000000     5.045000000     0.026000000
H     4.346000000     4.612000000     0.660000000
H     4.322000000     5.554000000    -0.525000000
O     0.230000000     2.406000000     4.244000000
H     0.960000000     1.913000000     3.869000000
H    -0.484000000     1.772000000     4.300000000
O    -5.875000000    -2.780000000     1.596000000
H    -5.145000000    -2.759000000     2.215000000
H    -5.590000000    -2.227000000     0.870000000
O    -4.703000000     5.282000000    -1.437000000
H    -5.062000000     4.729000000    -0.743000000
H    -3.756000000     5.147000000    -1.385000000
O    -1.556000000     4.188000000     5.375000000
H    -0.834000000     3.747000000     4.927000000
H    -1.937000000     3.514000000     5.937000000
O     3.307000000    -3.325000000     2.336000000
H     3.635000000    -2.430000000     2.430000000
H     3.704000000    -3.804000000     3.063000000
O    -0.828000000    -1.364000000    -5.964000000
H    -1.185000000    -0.657000000    -6.502000000
H    -1.597000000    -1.783000000    -5.578000000
O     4.565000000    -2.301000000     4.825000000
H     4.264000000    -1.393000000     4.872000000
H     5.294000000    -2.280000000     4.205000000
O    -2.264000000     6.581000000    -3.283000000
H    -2.541000000     7.288000000    -2.700000000
H    -2.343000000     5.788000000    -2.753000000
O     1.154000000     0.291000000    -4.930000000
H     1.708000000    -0.064000000    -4.234000000
H     0.440000000    -0.341000000    -5.013000000
O    -0.699000000     2.405000000    -4.438000000
H    -0.554000000     3.295000000    -4.117000000
H     0.179000000     2.035000000    -4.522000000
O     2.640000000     3.436000000     5.335000000
H     2.090000000     3.248000000     4.574000000
H     2.073000000     3.932000000     5.924000000
O    -2.420000000    -0.047000000     1.606000000
H    -1.679000000    -0.159000000     1.010000000
H    -3.122000000    -0.566000000     1.213000000
O     2.687000000    -1.366000000    -2.955000000
H     3.082000000    -1.290000000    -2.087000000
H     2.003000000    -2.028000000    -2.850000000
O     0.438000000     3.903000000    -2.205000000
H     0.905000000     3.345000000    -1.583000000
H     1.076000000     4.075000000    -2.898000000
O    -0.667000000    -5.576000000    -2.584000000
H    -0.738000000    -5.336000000    -1.660000000
H    -1.523000000    -5.944000000    -2.803000000
O    -2.477000000     0.277000000     4.187000000
H    -3.001000000     1.069000000     4.067000000
H    -2.171000000     0.057000000     3.308000000
O    -1.375000000    -2.864000000     4.559000000
H    -1.253000000    -3.315000000     5.395000000
H    -1.812000000    -2.045000000     4.791000000
O     2.313000000    -1.327000000     7.412000000
H     1.495000000    -1.468000000     6.936000000
H     2.787000000    -0.682000000     6.888000000
O     5.259000000    -1.050000000     1.897000000
H     5.829000000    -1.772000000     2.164000000
H     5.727000000    -0.262000000     2.172000000
O    -2.992000000     2.887000000     0.441000000
H    -2.977000000     3.278000000     1.314000000
H    -3.331000000     2.002000000     0.580000000
O     1.377000000    -5.115000000     1.438000000
H     0.844000000    -5.420000000     2.172000000
H     1.935000000    -4.434000000     1.814000000
O    -5.196000000     0.541000000    -5.159000000
H    -4.612000000     0.601000000    -4.403000000
H    -4.674000000     0.101000000    -5.830000000
O    -3.695000000    -1.128000000    -2.857000000
H    -3.313000000    -0.278000000    -3.077000000
H    -3.278000000    -1.742000000    -3.462000000
O     2.791000000    -4.266000000     6.137000000
H     3.344000000    -3.577000000     5.769000000
H     3.354000000    -5.039000000     6.159000000
O    -2.213000000     1.888000000    -6.737000000
H    -1.656000000     1.857000000    -5.959000000
H    -2.450000000     2.811000000    -6.826000000
O    -6.320000000    -2.798000000    -4.386000000
H    -7.210000000    -2.488000000    -4.554000000
H    -5.835000000    -2.010000000    -4.139000000
O     0.515000000    -0.803000000     5.130000000
H    -0.044000000    -1.517000000     4.823000000
H     1.279000000    -0.833000000     4.555000000
O     5.044000000     4.402000000     4.769000000
H     4.676000000     4.592000000     5.632000000
H     4.336000000     3.965000000     4.297000000
O    -2.009000000     4.612000000    -1.362000000
H    -2.251000000     4.136000000    -0.568000000
H    -1.061000000     4.505000000    -1.428000000
O     2.552000000     3.587000000    -3.761000000
H     2.532000000     2.947000000    -3.050000000
H     3.420000000     3.483000000    -4.152000000
O     3.007000000     4.092000000     2.031000000
H     2.589000000     3.281000000     2.320000000
H     2.326000000     4.759000000     2.124000000
O     4.092000000    -0.826000000    -0.577000000
H     4.684000000    -0.134000000    -0.872000000
H     4.062000000    -0.726000000     0.375000000
O    -3.737000000    -0.467000000    -7.030000000
H    -3.281000000     0.375000000    -7.023000000
H    -4.045000000    -0.565000000    -7.932000000
O    -0.771000000    -5.890000000     0.138000000
H    -0.712000000    -6.845000000     0.126000000
H     0.124000000    -5.597000000     0.310000000
O    -0.513000000    -5.313000000     3.419000000
H    -1.256000000    -5.916000000     3.398000000
H    -0.876000000    -4.496000000     3.760000000
O    -3.001000000     1.441000000    -3.350000000
H    -2.587000000     2.221000000    -3.721000000
H    -3.544000000     1.776000000    -2.636000000
O     0.538000000    -2.946000000    -3.288000000
H     0.530000000    -3.895000000    -3.168000000
H     0.493000000    -2.823000000    -4.236000000
O    -4.707000000    -1.206000000    -0.317000000
H    -5.602000000    -0.953000000    -0.544000000
H    -4.285000000    -1.377000000    -1.159000000
O     0.699000000     5.080000000     2.655000000
H     0.370000000     5.970000000     2.785000000
H     0.061000000     4.522000000     3.099000000
O     5.221000000     1.872000000     2.338000000
H     4.329000000     1.776000000     2.673000000
H     5.203000000     2.689000000     1.840000000
O    -3.425000000    -3.309000000     2.662000000
H    -2.530000000    -2.973000000     2.704000000
H    -3.431000000    -3.877000000     1.892000000
O    -2.689000000    -3.135000000    -4.506000000
H    -3.260000000    -3.638000000    -5.086000000
H    -2.303000000    -3.789000000    -3.924000000
O    -3.218000000    -5.150000000     0.816000000
H    -2.278000000    -5.327000000     0.796000000
H    -3.610000000    -5.886000000     0.347000000
O     3.581000000     0.320000000     5.183000000
H     3.526000000     1.274000000     5.125000000
H     3.016000000     0.004000000     4.479000000
O     2.394000000     1.490000000    -2.165000000
H     2.653000000     0.637000000    -2.513000000
H     1.742000000     1.287000000    -1.494000000
