158
-3026.39085
C     0.257000000     1.515000000    -0.208000000
H     0.248000000     2.580000000    -0.428000000
C    -0.103000000     0.575000000    -1.258000000
H    -0.231000000     0.853000000    -2.301000000
C    -0.274000000    -0.746000000    -0.867000000
H    -0.715000000    -1.461000000    -1.647000000
C    -0.122000000    -1.177000000     0.423000000
H    -0.410000000    -2.146000000     0.822000000
C     0.316000000    -0.311000000     1.354000000
H     0.356000000    -0.720000000     2.360000000
C     0.428000000     1.057000000     1.096000000
C     0.761000000     1.975000000     2.228000000
O     0.730000000     3.180000000     1.986000000
O     0.917000000     1.489000000     3.325000000
O     4.771000000    -1.511000000     2.258000000
H     5.195000000    -0.756000000     2.666000000
H     4.089000000    -1.132000000     1.703000000
O     1.320000000     7.107000000     3.129000000
H     1.217000000     6.840000000     2.216000000
H     1.695000000     7.987000000     3.081000000
O     0.033000000     4.991000000     7.038000000
H     0.510000000     4.528000000     6.350000000
H    -0.777000000     5.278000000     6.616000000
O    -1.281000000    -1.262000000    -7.020000000
H    -1.271000000    -0.354000000    -6.717000000
H    -1.576000000    -1.764000000    -6.260000000
O     1.453000000    -6.228000000     0.438000000
H     2.053000000    -6.561000000     1.105000000
H     0.814000000    -5.710000000     0.927000000
O     2.872000000     7.211000000     0.897000000
H     2.052000000     6.788000000     0.639000000
H     2.780000000     8.114000000     0.594000000
O    -1.445000000     4.273000000     3.137000000
H    -1.759000000     4.282000000     2.233000000
H    -0.666000000     3.717000000     3.114000000
O     4.322000000    -3.191000000    -2.071000000
H     3.788000000    -3.135000000    -1.278000000
H     4.480000000    -2.280000000    -2.318000000
O    -2.008000000     5.247000000     5.493000000
H    -2.247000000     6.166000000     5.372000000
H    -1.872000000     4.917000000     4.605000000
O     3.682000000     2.481000000     7.038000000
H     4.159000000     1.779000000     7.479000000
H     3.621000000     2.194000000     6.127000000
O     2.124000000    -3.167000000     3.225000000
H     2.753000000    -2.446000000     3.193000000
H     2.548000000    -3.831000000     3.768000000
O    -1.010000000     0.932000000    -5.244000000
H    -1.272000000     1.844000000    -5.367000000
H    -1.418000000     0.674000000    -4.418000000
O     3.009000000     2.850000000    -0.892000000
H     3.961000000     2.770000000    -0.828000000
H     2.711000000     2.896000000     0.017000000
O     1.732000000     0.492000000    -6.239000000
H     1.897000000     0.107000000    -5.378000000
H     0.808000000     0.741000000    -6.217000000
O     1.109000000     3.247000000    -6.471000000
H     1.634000000     2.624000000    -6.972000000
H     1.367000000     3.100000000    -5.561000000
O     1.159000000     4.137000000     4.824000000
H     0.759000000     3.458000000     4.280000000
H     1.447000000     4.805000000     4.201000000
O    -2.390000000     0.943000000     1.053000000
H    -1.458000000     0.785000000     0.904000000
H    -2.832000000     0.254000000     0.557000000
O     1.902000000    -0.814000000    -3.825000000
H     1.379000000    -1.609000000    -3.724000000
H     2.550000000    -0.863000000    -3.122000000
O    -2.014000000     5.408000000    -0.275000000
H    -2.803000000     5.767000000     0.131000000
H    -1.777000000     6.049000000    -0.945000000
O    -2.629000000     1.288000000     3.755000000
H    -2.406000000     2.214000000     3.848000000
H    -2.545000000     1.115000000     2.817000000
O     1.202000000    -2.093000000     6.206000000
H     0.687000000    -1.302000000     6.046000000
H     2.029000000    -1.937000000     5.750000000
O     3.806000000    -1.243000000     5.759000000
H     4.760000000    -1.178000000     5.712000000
H     3.491000000    -0.438000000     5.348000000
O    -4.077000000     3.067000000     0.808000000
H    -4.940000000     2.674000000     0.679000000
H    -3.527000000     2.345000000     1.111000000
O    -0.190000000    -4.698000000     2.364000000
H    -0.895000000    -4.327000000     2.894000000
H     0.571000000    -4.153000000     2.562000000
O     4.190000000    -2.476000000    -5.700000000
H     3.473000000    -3.004000000    -5.348000000
H     4.278000000    -2.766000000    -6.608000000
O    -4.983000000    -0.669000000    -4.853000000
H    -4.136000000    -0.767000000    -4.418000000
H    -4.773000000    -0.271000000    -5.698000000
O    -3.924000000    -3.690000000    -2.591000000
H    -3.415000000    -3.142000000    -3.188000000
H    -4.827000000    -3.391000000    -2.703000000
O     2.248000000    -3.408000000    -0.076000000
H     2.130000000    -3.789000000     0.794000000
H     1.555000000    -3.802000000    -0.606000000
O     2.614000000    -4.640000000    -3.984000000
H     2.788000000    -5.416000000    -3.451000000
H     3.223000000    -3.980000000    -3.652000000
O    -0.182000000    -4.395000000    -4.544000000
H    -0.492000000    -5.178000000    -4.088000000
H     0.763000000    -4.386000000    -4.390000000
O    -6.194000000    -2.625000000    -3.316000000
H    -7.025000000    -2.842000000    -3.739000000
H    -5.774000000    -2.008000000    -3.916000000
O    -0.633000000     0.169000000     5.204000000
H    -1.412000000     0.299000000     4.663000000
H     0.077000000     0.572000000     4.703000000
O    -2.874000000     3.299000000    -1.825000000
H    -3.035000000     3.606000000    -0.933000000
H    -2.044000000     3.707000000    -2.073000000
O     1.511000000     5.430000000    -3.037000000
H     1.519000000     4.512000000    -3.308000000
H     2.433000000     5.686000000    -3.034000000
O     0.785000000     5.468000000     0.628000000
H     0.701000000     4.614000000     1.053000000
H     0.021000000     5.527000000     0.055000000
O     3.142000000    -0.790000000     0.318000000
H     2.366000000    -0.257000000     0.148000000
H     2.838000000    -1.693000000     0.227000000
O    -1.268000000    -7.196000000     1.827000000
H    -2.036000000    -6.930000000     1.321000000
H    -0.878000000    -6.373000000     2.122000000
O    -2.742000000     0.487000000    -3.247000000
H    -2.562000000     0.181000000    -2.358000000
H    -3.205000000     1.315000000    -3.127000000
O    -2.401000000    -2.696000000    -4.758000000
H    -3.003000000    -3.117000000    -5.372000000
H    -1.668000000    -3.307000000    -4.684000000
O    -4.000000000    -0.856000000    -0.115000000
H    -4.849000000    -0.531000000    -0.415000000
H    -4.059000000    -1.806000000    -0.214000000
O    -2.103000000     0.749000000     7.444000000
H    -1.575000000     0.422000000     6.715000000
H    -2.683000000     1.399000000     7.046000000
O     6.231000000     3.777000000     2.607000000
H     5.278000000     3.737000000     2.538000000
H     6.471000000     4.584000000     2.153000000
O     3.500000000     4.169000000     2.184000000
H     2.544000000     4.136000000     2.207000000
H     3.702000000     5.056000000     1.886000000
O    -0.177000000     7.101000000    -1.793000000
H     0.292000000     7.684000000    -1.196000000
H     0.506000000     6.553000000    -2.179000000
O    -4.013000000    -3.122000000     2.992000000
H    -3.620000000    -2.846000000     3.820000000
H    -3.575000000    -3.947000000     2.782000000
O    -3.484000000    -5.952000000    -1.028000000
H    -3.619000000    -5.067000000    -1.365000000
H    -3.564000000    -6.517000000    -1.797000000
O     3.251000000     1.241000000     4.639000000
H     2.446000000     1.477000000     4.178000000
H     3.947000000     1.407000000     4.004000000
O     1.924000000     2.609000000    -3.423000000
H     2.230000000     2.897000000    -2.563000000
H     1.810000000     1.663000000    -3.333000000
