158
-3049.74581
C    -0.028000000     1.083000000     1.033000000
H    -0.136000000     1.911000000     1.729000000
C    -1.102000000     0.167000000     0.735000000
H    -2.020000000     0.222000000     1.315000000
C    -0.891000000    -0.824000000    -0.222000000
H    -1.676000000    -1.604000000    -0.459000000
C     0.250000000    -0.841000000    -0.945000000
H     0.384000000    -1.616000000    -1.696000000
C     1.304000000     0.041000000    -0.711000000
H     2.244000000     0.001000000    -1.256000000
C     1.128000000     1.052000000     0.272000000
C     2.159000000     2.071000000     0.557000000
O     2.362000000     2.517000000     1.683000000
O     2.947000000     2.370000000    -0.329000000
O     2.418000000    -2.100000000     1.631000000
H     2.881000000    -1.398000000     2.089000000
H     1.517000000    -1.787000000     1.560000000
O    -2.749000000     3.374000000     0.284000000
H    -2.332000000     4.000000000    -0.308000000
H    -2.878000000     2.590000000    -0.249000000
O    -0.236000000    -1.005000000     5.310000000
H    -0.915000000    -1.661000000     5.462000000
H     0.125000000    -1.228000000     4.452000000
O    -1.907000000    -1.329000000    -4.213000000
H    -0.984000000    -1.077000000    -4.227000000
H    -2.248000000    -1.039000000    -5.059000000
O     1.275000000     3.544000000     3.833000000
H     1.552000000     3.162000000     3.000000000
H     0.364000000     3.267000000     3.932000000
O    -5.066000000    -0.654000000     2.422000000
H    -4.282000000    -1.200000000     2.367000000
H    -5.024000000    -0.095000000     1.646000000
O     5.059000000     6.133000000    -2.261000000
H     4.470000000     5.691000000    -1.650000000
H     5.937000000     5.910000000    -1.950000000
O     0.640000000    -0.340000000    -4.780000000
H     1.143000000     0.354000000    -4.353000000
H     1.283000000    -0.806000000    -5.316000000
O     5.554000000     2.467000000     0.161000000
H     4.677000000     2.729000000    -0.118000000
H     5.414000000     1.677000000     0.683000000
O    -1.875000000    -7.358000000    -2.247000000
H    -1.928000000    -8.314000000    -2.226000000
H    -2.220000000    -7.082000000    -1.397000000
O     1.903000000     7.281000000    -1.550000000
H     1.207000000     7.506000000    -0.933000000
H     2.446000000     6.649000000    -1.078000000
O    -3.994000000    -0.755000000     5.253000000
H    -3.367000000    -1.476000000     5.308000000
H    -3.908000000    -0.432000000     4.356000000
O    -5.239000000     0.596000000    -4.020000000
H    -5.039000000    -0.337000000    -4.093000000
H    -5.862000000     0.651000000    -3.295000000
O    -5.259000000    -2.586000000    -3.317000000
H    -5.784000000    -2.844000000    -4.075000000
H    -5.851000000    -2.686000000    -2.571000000
O    -2.738000000    -3.577000000    -3.132000000
H    -2.393000000    -2.738000000    -3.438000000
H    -3.656000000    -3.571000000    -3.404000000
O     4.524000000     0.885000000     5.266000000
H     5.448000000     0.662000000     5.376000000
H     4.444000000     1.766000000     5.631000000
O     0.575000000     4.225000000    -1.282000000
H    -0.123000000     4.783000000    -0.939000000
H     1.227000000     4.199000000    -0.582000000
O     1.977000000    -4.771000000    -2.131000000
H     2.330000000    -5.640000000    -2.324000000
H     1.031000000    -4.866000000    -2.242000000
O    -1.411000000    -5.049000000     1.932000000
H    -1.711000000    -5.147000000     1.028000000
H    -1.089000000    -5.918000000     2.173000000
O     1.127000000     4.585000000     6.476000000
H     1.361000000     4.237000000     5.615000000
H     1.393000000     3.902000000     7.091000000
O    -4.613000000    -4.542000000     3.825000000
H    -4.162000000    -3.976000000     3.198000000
H    -5.239000000    -3.965000000     4.262000000
O     5.361000000     2.171000000    -4.423000000
H     4.935000000     1.874000000    -3.618000000
H     5.826000000     1.399000000    -4.745000000
O    -0.020000000     5.503000000     2.122000000
H    -0.686000000     5.391000000     2.800000000
H     0.711000000     4.958000000     2.411000000
O     3.832000000    -3.778000000     0.081000000
H     3.261000000    -3.278000000     0.664000000
H     3.244000000    -4.125000000    -0.590000000
O    -3.784000000     2.210000000     2.443000000
H    -3.479000000     2.696000000     1.677000000
H    -4.672000000     1.935000000     2.216000000
O     5.885000000     0.034000000     2.014000000
H     4.986000000    -0.064000000     2.328000000
H     6.393000000     0.233000000     2.801000000
O    -3.070000000     1.642000000    -1.652000000
H    -2.596000000     0.995000000    -1.129000000
H    -2.877000000     1.404000000    -2.559000000
O     5.902000000     5.789000000     2.625000000
H     5.303000000     5.061000000     2.462000000
H     6.382000000     5.894000000     1.803000000
O     3.403000000     0.404000000     2.946000000
H     3.850000000     0.600000000     3.769000000
H     3.141000000     1.259000000     2.605000000
O     3.500000000    -2.982000000    -3.894000000
H     4.013000000    -2.377000000    -3.359000000
H     2.988000000    -3.486000000    -3.262000000
O    -1.091000000     2.689000000    -3.546000000
H    -0.192000000     2.778000000    -3.862000000
H    -1.103000000     3.173000000    -2.720000000
O     4.289000000     0.704000000    -2.197000000
H     4.203000000     1.142000000    -1.351000000
H     4.491000000    -0.205000000    -1.976000000
O    -5.631000000    -5.452000000    -1.490000000
H    -5.606000000    -6.215000000    -0.913000000
H    -5.016000000    -5.663000000    -2.192000000
O     1.855000000     2.676000000    -3.236000000
H     1.630000000     3.264000000    -2.515000000
H     2.682000000     2.275000000    -2.969000000
O     5.117000000    -2.135000000    -1.809000000
H     6.056000000    -1.981000000    -1.912000000
H     5.044000000    -2.642000000    -1.000000000
O     7.541000000     4.625000000     0.530000000
H     7.820000000     4.961000000    -0.321000000
H     7.090000000     3.805000000     0.327000000
O     7.549000000     2.817000000     3.315000000
H     7.934000000     2.427000000     2.531000000
H     6.668000000     3.076000000     3.046000000
O    -0.522000000    -5.084000000    -3.385000000
H    -1.148000000    -4.389000000    -3.181000000
H    -0.918000000    -5.877000000    -3.025000000
O     8.120000000     2.155000000    -1.133000000
H     8.113000000     1.597000000    -1.910000000
H     7.211000000     2.158000000    -0.832000000
O    -0.035000000    -3.104000000     3.217000000
H     0.803000000    -3.334000000     3.618000000
H    -0.251000000    -3.855000000     2.665000000
O     2.295000000    -2.484000000    -6.358000000
H     3.068000000    -2.124000000    -6.793000000
H     2.576000000    -2.636000000    -5.456000000
O    -5.327000000     0.770000000     0.030000000
H    -5.015000000     1.001000000    -0.845000000
H    -6.281000000     0.817000000    -0.036000000
O    -3.063000000     5.536000000     2.439000000
H    -3.522000000     6.356000000     2.257000000
H    -3.059000000     5.072000000     1.602000000
O     3.583000000     5.299000000    -0.018000000
H     3.345000000     4.453000000     0.361000000
H     3.901000000     5.813000000     0.724000000
O    -1.665000000     3.401000000     3.910000000
H    -1.953000000     2.488000000     3.903000000
H    -2.251000000     3.842000000     3.295000000
O    -2.945000000    -2.416000000     2.368000000
H    -2.861000000    -2.885000000     1.537000000
H    -2.097000000    -2.532000000     2.796000000
O    -2.702000000    -4.792000000    -0.413000000
H    -2.685000000    -4.364000000    -1.269000000
H    -3.604000000    -4.684000000    -0.109000000
O     4.438000000     3.371000000     3.028000000
H     4.232000000     3.347000000     3.962000000
H     3.609000000     3.166000000     2.595000000
