158
-3028.61070
C    -0.487000000     1.452000000    -0.075000000
H    -0.903000000     2.444000000    -0.232000000
C    -0.982000000     0.378000000    -0.792000000
H    -1.759000000     0.598000000    -1.519000000
C    -0.426000000    -0.909000000    -0.670000000
H    -0.755000000    -1.776000000    -1.305000000
C     0.632000000    -1.132000000     0.206000000
H     1.048000000    -2.129000000     0.326000000
C     0.986000000    -0.087000000     1.038000000
H     1.748000000    -0.279000000     1.789000000
C     0.539000000     1.258000000     0.851000000
C     1.031000000     2.359000000     1.751000000
O     0.477000000     3.451000000     1.777000000
O     1.979000000     2.120000000     2.552000000
O     1.486000000     7.673000000    -0.426000000
H     0.879000000     6.953000000    -0.254000000
H     1.806000000     7.510000000    -1.313000000
O    -2.450000000     2.570000000     2.010000000
H    -3.042000000     2.727000000     1.275000000
H    -1.678000000     3.100000000     1.814000000
O    -6.056000000    -1.477000000     1.275000000
H    -5.219000000    -1.430000000     0.813000000
H    -6.442000000    -2.304000000     0.986000000
O     1.670000000    -2.582000000    -3.813000000
H     1.886000000    -3.051000000    -3.008000000
H     2.268000000    -2.942000000    -4.468000000
O    -1.940000000     5.628000000     3.515000000
H    -1.768000000     6.153000000     2.733000000
H    -2.165000000     4.761000000     3.177000000
O    -4.430000000     4.598000000    -2.273000000
H    -5.216000000     4.053000000    -2.241000000
H    -4.740000000     5.479000000    -2.063000000
O     2.628000000     2.862000000     5.591000000
H     1.946000000     3.059000000     4.948000000
H     2.781000000     3.694000000     6.040000000
O     4.180000000    -1.122000000     4.674000000
H     4.981000000    -1.633000000     4.787000000
H     4.384000000    -0.509000000     3.968000000
O    -3.625000000    -7.629000000    -2.429000000
H    -3.182000000    -7.221000000    -1.685000000
H    -4.517000000    -7.284000000    -2.395000000
O    -1.403000000    -1.165000000    -7.732000000
H    -0.713000000    -0.802000000    -8.287000000
H    -1.043000000    -1.124000000    -6.846000000
O     3.732000000     3.060000000    -2.601000000
H     3.772000000     2.917000000    -1.656000000
H     4.286000000     3.826000000    -2.751000000
O     1.356000000     1.078000000     7.156000000
H     1.753000000     1.749000000     6.601000000
H     1.871000000     0.289000000     6.983000000
O     4.292000000     4.040000000     3.046000000
H     3.721000000     4.278000000     2.315000000
H     3.722000000     3.565000000     3.650000000
O    -3.638000000    -0.305000000     0.264000000
H    -3.939000000    -0.272000000    -0.644000000
H    -3.515000000     0.612000000     0.509000000
O     1.728000000     0.021000000    -2.485000000
H     1.838000000    -0.882000000    -2.783000000
H     1.134000000    -0.045000000    -1.737000000
O    -0.577000000     2.927000000     6.302000000
H    -0.134000000     3.531000000     5.706000000
H     0.132000000     2.442000000     6.723000000
O    -1.843000000     5.048000000    -1.580000000
H    -2.780000000     4.950000000    -1.747000000
H    -1.550000000     5.688000000    -2.229000000
O     1.776000000    -5.578000000    -4.846000000
H     0.993000000    -6.129000000    -4.862000000
H     2.360000000    -6.010000000    -4.224000000
O    -2.588000000     0.661000000     3.879000000
H    -2.178000000     1.186000000     3.192000000
H    -2.348000000     1.103000000     4.694000000
O     1.613000000     0.114000000     4.223000000
H     1.793000000     0.935000000     3.765000000
H     2.463000000    -0.158000000     4.571000000
O    -4.112000000     2.638000000    -0.075000000
H    -4.980000000     2.245000000    -0.164000000
H    -4.244000000     3.562000000    -0.289000000
O     0.667000000    -5.826000000     2.687000000
H    -0.059000000    -5.362000000     3.104000000
H     1.218000000    -6.113000000     3.415000000
O    -3.795000000     1.877000000    -4.282000000
H    -2.905000000     2.183000000    -4.108000000
H    -4.029000000     1.369000000    -3.505000000
O     5.757000000     0.322000000     0.357000000
H     5.506000000     0.678000000    -0.496000000
H     6.471000000     0.887000000     0.651000000
O     6.147000000     4.366000000     4.795000000
H     6.921000000     4.675000000     4.325000000
H     5.501000000     4.198000000     4.108000000
O    -3.845000000    -3.123000000    -6.473000000
H    -3.680000000    -2.203000000    -6.264000000
H    -3.450000000    -3.608000000    -5.749000000
O    -4.204000000    -3.704000000    -2.257000000
H    -3.824000000    -4.106000000    -3.038000000
H    -5.120000000    -3.982000000    -2.265000000
O     2.499000000    -3.937000000    -1.870000000
H     3.005000000    -3.474000000    -1.203000000
H     3.070000000    -4.652000000    -2.151000000
O    -0.244000000    -1.387000000    -5.146000000
H     0.381000000    -1.667000000    -4.477000000
H    -0.638000000    -0.592000000    -4.789000000
O     0.451000000     4.237000000     4.239000000
H    -0.180000000     4.944000000     4.100000000
H     0.567000000     3.847000000     3.373000000
O    -1.510000000     2.834000000    -3.524000000
H    -0.555000000     2.808000000    -3.469000000
H    -1.771000000     3.457000000    -2.846000000
O    -4.433000000    -4.593000000     2.673000000
H    -4.206000000    -5.510000000     2.518000000
H    -3.624000000    -4.112000000     2.501000000
O    -0.240000000     5.575000000     0.522000000
H     0.051000000     4.780000000     0.968000000
H    -0.737000000     5.258000000    -0.233000000
O     4.164000000    -2.326000000    -0.007000000
H     5.088000000    -2.439000000    -0.228000000
H     4.132000000    -1.499000000     0.475000000
O    -1.915000000    -6.933000000    -0.415000000
H    -2.149000000    -6.006000000    -0.382000000
H    -0.976000000    -6.950000000    -0.233000000
O    -3.684000000    -0.549000000    -5.583000000
H    -3.826000000    -0.220000000    -4.696000000
H    -3.000000000     0.017000000    -5.942000000
O    -2.724000000    -4.930000000    -4.621000000
H    -2.655000000    -5.412000000    -5.445000000
H    -1.991000000    -5.249000000    -4.095000000
O    -4.414000000    -0.437000000    -2.782000000
H    -5.349000000    -0.545000000    -2.607000000
H    -4.022000000    -1.266000000    -2.510000000
O     0.616000000    -3.586000000    -6.663000000
H     1.034000000    -4.235000000    -6.098000000
H     0.156000000    -3.003000000    -6.059000000
O    -0.713000000    -1.165000000     3.821000000
H     0.137000000    -0.777000000     4.026000000
H    -1.320000000    -0.425000000     3.822000000
O     4.733000000     3.114000000    -0.115000000
H     4.067000000     3.453000000     0.484000000
H     5.099000000     3.895000000    -0.532000000
O    -1.274000000     7.681000000     1.722000000
H    -2.208000000     7.500000000     1.612000000
H    -0.839000000     7.045000000     1.155000000
O     2.897000000     4.902000000     0.891000000
H     2.090000000     4.661000000     1.346000000
H     3.008000000     5.834000000     1.077000000
O    -2.230000000    -2.609000000     1.502000000
H    -1.549000000    -2.171000000     2.012000000
H    -2.697000000    -1.897000000     1.065000000
O     4.568000000     0.176000000    -2.477000000
H     3.618000000     0.288000000    -2.503000000
H     4.907000000     1.049000000    -2.278000000
O    -2.881000000    -4.446000000    -0.022000000
H    -3.406000000    -3.919000000    -0.624000000
H    -2.516000000    -3.813000000     0.595000000
O     4.300000000     0.458000000     2.679000000
H     3.552000000     1.017000000     2.470000000
H     4.682000000     0.242000000     1.828000000
O     1.159000000     2.642000000    -3.333000000
H     1.995000000     3.004000000    -3.039000000
H     1.237000000     1.701000000    -3.176000000
