158
-3066.69267
C    -0.019000000     0.478000000     1.428000000
H    -0.207000000     0.867000000     2.426000000
C    -1.133000000    -0.076000000     0.776000000
H    -2.116000000    -0.182000000     1.228000000
C    -0.959000000    -0.601000000    -0.455000000
H    -1.693000000    -1.214000000    -0.967000000
C     0.262000000    -0.482000000    -1.110000000
H     0.328000000    -0.911000000    -2.106000000
C     1.351000000     0.144000000    -0.549000000
H     2.278000000     0.295000000    -1.096000000
C     1.187000000     0.673000000     0.759000000
C     2.347000000     1.390000000     1.279000000
O     2.294000000     1.873000000     2.390000000
O     3.266000000     1.715000000     0.476000000
O     1.357000000     2.688000000    -4.483000000
H     1.369000000     2.393000000    -3.572000000
H     2.114000000     2.260000000    -4.883000000
O     1.413000000    -2.189000000     3.711000000
H     1.890000000    -2.991000000     3.926000000
H     1.188000000    -2.285000000     2.786000000
O    -1.516000000    -3.220000000    -2.733000000
H    -1.885000000    -3.871000000    -3.329000000
H    -2.130000000    -2.487000000    -2.768000000
O     0.040000000     2.374000000     4.367000000
H     0.839000000     2.297000000     3.846000000
H    -0.211000000     3.294000000     4.287000000
O     1.519000000     4.393000000     1.371000000
H     1.855000000     3.498000000     1.334000000
H     2.284000000     4.928000000     1.585000000
O     7.102000000     1.754000000    -3.544000000
H     6.169000000     1.670000000    -3.349000000
H     7.535000000     1.210000000    -2.887000000
O    -6.883000000    -2.679000000     1.701000000
H    -6.494000000    -1.922000000     1.264000000
H    -7.237000000    -3.211000000     0.989000000
O     5.199000000     2.238000000     2.689000000
H     4.611000000     2.528000000     3.387000000
H     4.670000000     1.637000000     2.164000000
O    -3.717000000    -1.138000000    -2.469000000
H    -4.080000000    -0.809000000    -1.646000000
H    -4.394000000    -0.955000000    -3.120000000
O     0.119000000     5.826000000    -0.433000000
H     0.441000000     6.668000000    -0.111000000
H     0.518000000     5.179000000     0.148000000
O    -2.334000000    -5.214000000    -4.550000000
H    -2.900000000    -5.983000000    -4.488000000
H    -1.504000000    -5.553000000    -4.884000000
O    -3.958000000    -3.572000000    -0.099000000
H    -4.435000000    -2.744000000    -0.156000000
H    -4.465000000    -4.178000000    -0.640000000
O     3.818000000    -2.935000000    -0.703000000
H     2.988000000    -3.330000000    -0.436000000
H     4.487000000    -3.488000000    -0.298000000
O     3.310000000    -1.714000000    -3.178000000
H     2.519000000    -2.250000000    -3.239000000
H     3.717000000    -1.981000000    -2.353000000
O    -6.346000000     1.433000000    -0.849000000
H    -5.683000000     2.075000000    -1.101000000
H    -7.180000000     1.872000000    -1.018000000
O    -2.354000000    -1.566000000    -5.562000000
H    -1.814000000    -0.777000000    -5.521000000
H    -2.896000000    -1.527000000    -4.774000000
O    -0.790000000     4.928000000     3.726000000
H    -0.399000000     4.513000000     2.957000000
H    -0.685000000     5.867000000     3.570000000
O    -3.220000000    -3.337000000     2.806000000
H    -3.072000000    -3.599000000     1.898000000
H    -3.968000000    -2.741000000     2.766000000
O     0.518000000     3.331000000    -1.812000000
H     1.087000000     4.058000000    -1.559000000
H     0.356000000     2.858000000    -0.996000000
O     0.103000000    -0.268000000     6.037000000
H     0.999000000    -0.399000000     5.725000000
H    -0.351000000     0.138000000     5.298000000
O     3.722000000     5.905000000     2.353000000
H     3.639000000     6.368000000     3.187000000
H     3.665000000     6.594000000     1.691000000
O     0.992000000     4.511000000     6.007000000
H     1.678000000     3.857000000     6.139000000
H     0.236000000     4.164000000     6.480000000
O     1.323000000    -3.427000000     0.559000000
H     0.552000000    -3.955000000     0.348000000
H     1.109000000    -2.552000000     0.238000000
O    -0.647000000     0.608000000    -5.990000000
H     0.263000000     0.316000000    -5.938000000
H    -0.629000000     1.508000000    -5.663000000
O     1.331000000    -3.363000000    -3.126000000
H     0.513000000    -3.311000000    -2.631000000
H     1.446000000    -4.297000000    -3.300000000
O    -2.848000000     2.136000000     4.412000000
H    -2.968000000     1.452000000     5.070000000
H    -1.899000000     2.227000000     4.331000000
O     4.929000000    -0.291000000    -0.014000000
H     4.389000000    -1.055000000    -0.218000000
H     4.300000000     0.418000000     0.116000000
O    -2.139000000     4.454000000    -0.136000000
H    -1.278000000     4.716000000    -0.464000000
H    -2.548000000     5.273000000     0.143000000
O     2.535000000     0.306000000     4.420000000
H     2.478000000    -0.553000000     4.001000000
H     2.514000000     0.928000000     3.693000000
O     4.374000000     2.792000000    -1.665000000
H     4.199000000     2.538000000    -0.759000000
H     5.055000000     3.461000000    -1.599000000
O    -5.242000000    -5.805000000    -1.086000000
H    -5.615000000    -6.514000000    -1.609000000
H    -5.744000000    -5.818000000    -0.272000000
O    -1.856000000     2.576000000    -3.340000000
H    -1.001000000     2.613000000    -2.912000000
H    -1.733000000     3.047000000    -4.164000000
O     7.478000000    -0.970000000     0.882000000
H     6.665000000    -0.880000000     0.385000000
H     7.310000000    -0.505000000     1.701000000
O     6.780000000     0.203000000     3.255000000
H     5.989000000    -0.301000000     3.447000000
H     6.486000000     1.115000000     3.245000000
O     5.095000000     4.977000000     0.107000000
H     5.041000000     5.038000000     1.060000000
H     4.626000000     5.749000000    -0.210000000
O    -1.178000000    -3.941000000    -0.262000000
H    -1.236000000    -3.477000000    -1.097000000
H    -2.088000000    -4.109000000    -0.017000000
O    -5.357000000    -0.950000000     0.251000000
H    -4.971000000    -0.594000000     1.051000000
H    -5.759000000    -0.195000000    -0.178000000
O    -1.932000000    -1.374000000     4.269000000
H    -1.462000000    -1.725000000     5.026000000
H    -2.129000000    -2.142000000     3.733000000
O     6.989000000     4.374000000     3.201000000
H     6.650000000     3.587000000     2.774000000
H     6.372000000     4.545000000     3.913000000
O    -6.172000000     2.431000000    -4.033000000
H    -5.501000000     2.456000000    -3.351000000
H    -6.726000000     3.191000000    -3.852000000
O    -4.121000000     2.694000000    -1.805000000
H    -3.363000000     2.374000000    -2.294000000
H    -3.754000000     3.036000000    -0.990000000
O     4.145000000     0.938000000    -3.802000000
H     4.180000000     0.063000000    -3.416000000
H     4.049000000     1.526000000    -3.053000000
O    -5.733000000    -0.440000000    -4.411000000
H    -6.132000000     0.401000000    -4.186000000
H    -6.064000000    -0.635000000    -5.288000000
O    -0.364000000     2.361000000     7.109000000
H    -0.366000000     2.171000000     6.171000000
H     0.154000000     1.654000000     7.495000000
O    -4.436000000    -0.183000000     2.719000000
H    -3.588000000    -0.151000000     3.164000000
H    -4.983000000     0.434000000     3.205000000
O    -0.019000000    -3.008000000    -5.968000000
H    -0.673000000    -2.322000000    -6.109000000
H    -0.093000000    -3.221000000    -5.038000000
O     2.083000000    -1.140000000    -5.456000000
H     1.500000000    -1.898000000    -5.505000000
H     2.577000000    -1.270000000    -4.647000000
O     2.983000000     2.747000000     6.847000000
H     3.841000000     2.774000000     7.270000000
H     2.872000000     1.833000000     6.587000000
