158
-3067.96617
C     0.455000000     0.536000000     1.374000000
H     0.744000000     0.688000000     2.411000000
C    -0.649000000    -0.262000000     1.119000000
H    -1.238000000    -0.644000000     1.949000000
C    -1.073000000    -0.584000000    -0.178000000
H    -1.995000000    -1.146000000    -0.295000000
C    -0.272000000    -0.209000000    -1.274000000
H    -0.613000000    -0.503000000    -2.264000000
C     0.942000000     0.400000000    -1.028000000
H     1.657000000     0.587000000    -1.825000000
C     1.314000000     0.849000000     0.279000000
C     2.560000000     1.624000000     0.472000000
O     2.914000000     1.850000000     1.592000000
O     3.313000000     1.892000000    -0.421000000
O     1.235000000     3.640000000    -2.545000000
H     2.095000000     3.363000000    -2.230000000
H     1.425000000     4.235000000    -3.269000000
O    -0.991000000     1.998000000    -4.803000000
H    -1.078000000     2.486000000    -3.985000000
H    -0.718000000     2.654000000    -5.445000000
O     3.447000000    -2.346000000     3.582000000
H     3.933000000    -2.663000000     2.821000000
H     2.753000000    -2.993000000     3.710000000
O    -7.104000000     1.277000000     0.997000000
H    -7.587000000     1.493000000     0.200000000
H    -6.703000000     0.427000000     0.812000000
O     6.700000000     2.336000000    -1.743000000
H     6.039000000     1.645000000    -1.779000000
H     7.454000000     1.924000000    -1.322000000
O     5.290000000     0.830000000     5.959000000
H     5.180000000    -0.056000000     6.304000000
H     4.737000000     0.852000000     5.178000000
O    -0.990000000    -3.570000000    -4.556000000
H    -0.279000000    -3.207000000    -4.027000000
H    -1.663000000    -2.889000000    -4.551000000
O    -6.840000000    -3.615000000     1.512000000
H    -6.479000000    -3.382000000     0.657000000
H    -6.811000000    -4.572000000     1.532000000
O     1.800000000     2.176000000     4.081000000
H     2.163000000     2.044000000     3.206000000
H     1.684000000     3.123000000     4.153000000
O     3.031000000     4.613000000     1.748000000
H     2.982000000     3.660000000     1.673000000
H     3.782000000     4.769000000     2.320000000
O    -3.008000000    -0.088000000    -7.278000000
H    -2.423000000    -0.092000000    -6.520000000
H    -2.422000000    -0.129000000    -8.033000000
O     6.047000000     1.503000000    -5.144000000
H     5.384000000     1.873000000    -5.727000000
H     5.663000000     1.571000000    -4.270000000
O     5.765000000     2.891000000     0.959000000
H     4.819000000     2.779000000     1.046000000
H     5.944000000     2.711000000     0.036000000
O    -4.827000000    -3.283000000    -0.722000000
H    -5.546000000    -3.533000000    -1.302000000
H    -5.018000000    -2.377000000    -0.480000000
O    -2.115000000    -4.225000000    -0.398000000
H    -2.985000000    -3.847000000    -0.522000000
H    -2.101000000    -4.990000000    -0.973000000
O     4.172000000    -2.492000000     0.722000000
H     3.484000000    -3.155000000     0.774000000
H     4.964000000    -2.985000000     0.506000000
O     2.912000000    -3.103000000    -2.535000000
H     2.810000000    -3.956000000    -2.956000000
H     2.434000000    -3.184000000    -1.710000000
O     0.360000000    -6.811000000    -1.081000000
H    -0.194000000    -6.141000000    -1.481000000
H     1.231000000    -6.413000000    -1.048000000
O    -4.393000000     1.900000000    -0.020000000
H    -3.534000000     2.240000000     0.234000000
H    -4.936000000     2.680000000    -0.131000000
O    -3.134000000    -1.915000000    -3.635000000
H    -2.577000000    -1.150000000    -3.492000000
H    -3.997000000    -1.646000000    -3.318000000
O     1.437000000     4.716000000     4.357000000
H     1.981000000     5.318000000     3.848000000
H     0.551000000     4.855000000     4.024000000
O    -1.950000000    -4.123000000     2.369000000
H    -2.235000000    -4.370000000     1.490000000
H    -2.449000000    -3.331000000     2.569000000
O    -1.487000000     2.872000000     0.101000000
H    -0.933000000     3.451000000     0.625000000
H    -0.931000000     2.116000000    -0.089000000
O     0.614000000    -1.036000000     4.499000000
H     1.470000000    -0.650000000     4.310000000
H     0.580000000    -1.822000000     3.954000000
O     5.144000000     5.182000000     3.171000000
H     5.649000000     4.405000000     3.412000000
H     5.028000000     5.658000000     3.993000000
O     2.215000000    -5.342000000     0.497000000
H     2.125000000    -5.855000000     1.300000000
H     1.424000000    -4.804000000     0.466000000
O    -4.740000000    -4.993000000    -3.396000000
H    -4.447000000    -4.354000000    -2.747000000
H    -4.598000000    -4.561000000    -4.239000000
O    -1.048000000    -0.523000000    -5.377000000
H    -0.123000000    -0.720000000    -5.234000000
H    -1.131000000     0.407000000    -5.162000000
O    -2.048000000    -0.510000000     4.970000000
H    -2.134000000     0.363000000     5.353000000
H    -1.153000000    -0.537000000     4.632000000
O    -4.079000000    -2.795000000    -5.879000000
H    -3.614000000    -2.331000000    -5.183000000
H    -3.395000000    -3.036000000    -6.504000000
O     5.374000000    -0.304000000    -0.550000000
H     4.961000000    -0.938000000     0.036000000
H     4.848000000     0.490000000    -0.454000000
O     0.367000000     4.649000000     0.913000000
H     1.194000000     4.429000000     1.342000000
H     0.143000000     5.515000000     1.252000000
O     4.134000000     0.252000000     3.560000000
H     4.092000000    -0.692000000     3.409000000
H     3.848000000     0.640000000     2.733000000
O     4.275000000     4.225000000    -2.032000000
H     4.213000000     3.669000000    -1.256000000
H     5.205000000     4.443000000    -2.097000000
O    -2.363000000    -6.220000000    -2.382000000
H    -3.214000000    -6.165000000    -2.817000000
H    -1.758000000    -6.487000000    -3.073000000
O    -2.370000000     3.266000000    -2.713000000
H    -2.705000000     4.082000000    -3.084000000
H    -2.003000000     3.520000000    -1.867000000
O     0.246000000    -3.368000000     0.214000000
H     0.205000000    -2.460000000     0.512000000
H    -0.669000000    -3.621000000     0.092000000
O    -4.921000000    -0.777000000     0.868000000
H    -4.511000000    -0.803000000     1.732000000
H    -4.673000000     0.075000000     0.510000000
O     1.320000000    -3.759000000     3.435000000
H     1.107000000    -4.249000000     4.229000000
H     0.538000000    -3.835000000     2.888000000
O     7.136000000     3.154000000     3.295000000
H     6.724000000     3.022000000     2.441000000
H     7.206000000     2.275000000     3.666000000
O     4.233000000     1.177000000    -3.032000000
H     3.719000000     1.559000000    -2.320000000
H     4.341000000     0.259000000    -2.783000000
O    -5.447000000    -0.057000000    -4.566000000
H    -4.900000000     0.377000000    -3.911000000
H    -4.828000000    -0.368000000    -5.227000000
O    -3.570000000     0.887000000    -2.590000000
H    -3.059000000     1.691000000    -2.676000000
H    -3.866000000     0.887000000    -1.679000000
O     0.182000000    -0.275000000     7.331000000
H     0.833000000     0.426000000     7.309000000
H     0.179000000    -0.628000000     6.442000000
O    -4.641000000    -0.260000000     3.586000000
H    -3.849000000    -0.202000000     4.121000000
H    -5.172000000     0.487000000     3.863000000
O     2.338000000     0.943000000    -5.559000000
H     2.813000000     0.947000000    -4.729000000
H     1.557000000     0.417000000    -5.386000000
O     1.480000000    -1.689000000    -4.907000000
H     1.550000000    -2.464000000    -5.465000000
H     2.287000000    -1.689000000    -4.393000000
O     2.123000000     1.443000000     6.668000000
H     2.184000000     1.656000000     5.737000000
H     2.938000000     0.980000000     6.862000000
