158
-3016.44764
C    -0.098000000     1.088000000     1.118000000
H    -0.098000000     1.857000000     1.885000000
C    -1.080000000     0.092000000     0.835000000
H    -1.926000000     0.011000000     1.513000000
C    -0.868000000    -0.910000000    -0.102000000
H    -1.656000000    -1.744000000    -0.261000000
C     0.249000000    -0.788000000    -0.942000000
H     0.385000000    -1.482000000    -1.768000000
C     1.169000000     0.191000000    -0.703000000
H     2.043000000     0.136000000    -1.347000000
C     1.069000000     1.149000000     0.282000000
C     2.159000000     2.209000000     0.302000000
O     2.258000000     2.995000000     1.175000000
O     2.820000000     2.468000000    -0.640000000
O     3.281000000    -1.189000000     3.738000000
H     3.193000000    -2.142000000     3.760000000
H     3.113000000    -0.954000000     2.825000000
O     0.949000000    -0.333000000     5.014000000
H     0.744000000     0.516000000     4.623000000
H     1.791000000    -0.576000000     4.628000000
O     4.863000000     7.021000000    -2.206000000
H     4.898000000     6.440000000    -1.446000000
H     5.728000000     6.942000000    -2.608000000
O    -2.832000000    -1.476000000    -3.584000000
H    -2.041000000    -0.950000000    -3.465000000
H    -2.520000000    -2.381000000    -3.582000000
O     0.244000000     4.759000000     1.164000000
H     1.031000000     4.217000000     1.122000000
H    -0.321000000     4.415000000     0.471000000
O    -4.441000000    -0.094000000     0.168000000
H    -4.053000000    -0.831000000     0.640000000
H    -4.665000000     0.537000000     0.852000000
O     1.506000000     4.158000000    -2.484000000
H     2.234000000     4.493000000    -3.008000000
H     1.909000000     3.899000000    -1.655000000
O    -4.192000000     1.008000000    -4.398000000
H    -3.530000000     0.844000000    -3.726000000
H    -4.065000000     0.305000000    -5.035000000
O     4.427000000     4.661000000    -0.586000000
H     4.174000000     5.083000000     0.235000000
H     3.971000000     3.819000000    -0.572000000
O    -3.771000000    -7.426000000    -0.976000000
H    -3.910000000    -6.507000000    -0.748000000
H    -2.834000000    -7.488000000    -1.161000000
O    -2.877000000    -5.722000000    -5.059000000
H    -2.559000000    -5.031000000    -4.477000000
H    -2.116000000    -5.954000000    -5.592000000
O     6.809000000     4.102000000    -1.887000000
H     5.888000000     4.242000000    -1.669000000
H     6.833000000     4.113000000    -2.844000000
O     2.057000000    -3.985000000     0.537000000
H     2.288000000    -3.915000000     1.464000000
H     1.467000000    -3.247000000     0.382000000
O    -0.512000000     7.574000000     0.275000000
H    -1.047000000     8.115000000     0.856000000
H    -0.467000000     6.724000000     0.714000000
O    -4.879000000    -0.269000000     4.227000000
H    -5.224000000     0.542000000     3.854000000
H    -3.928000000    -0.169000000     4.182000000
O    -7.525000000    -2.807000000    -2.029000000
H    -7.758000000    -2.872000000    -2.955000000
H    -6.655000000    -2.407000000    -2.027000000
O     2.282000000    -0.555000000    -4.811000000
H     2.267000000    -1.167000000    -4.075000000
H     2.667000000     0.244000000    -4.450000000
O     0.968000000    -6.239000000    -0.554000000
H     1.169000000    -6.624000000    -1.407000000
H     1.636000000    -5.564000000    -0.432000000
O    -5.437000000    -4.796000000    -2.503000000
H    -5.970000000    -4.926000000    -3.287000000
H    -5.164000000    -3.880000000    -2.547000000
O    -0.970000000     4.030000000    -1.179000000
H    -1.608000000     4.691000000    -1.448000000
H    -0.183000000     4.238000000    -1.683000000
O    -1.430000000    -5.075000000    -1.519000000
H    -0.727000000    -5.623000000    -1.172000000
H    -2.013000000    -4.931000000    -0.774000000
O    -1.394000000    -5.776000000     3.515000000
H    -1.440000000    -6.512000000     4.125000000
H    -2.277000000    -5.711000000     3.151000000
O     0.343000000     2.571000000     5.284000000
H     1.174000000     2.397000000     4.843000000
H    -0.135000000     3.138000000     4.678000000
O     0.619000000     6.329000000     4.805000000
H     1.441000000     5.860000000     4.952000000
H    -0.009000000     5.645000000     4.575000000
O     1.415000000    -1.279000000     1.915000000
H     0.722000000    -1.884000000     2.180000000
H     0.994000000    -0.692000000     1.287000000
O    -0.820000000    -0.822000000    -5.966000000
H    -0.017000000    -1.152000000    -5.565000000
H    -1.263000000    -0.349000000    -5.262000000
O    -4.970000000     1.646000000     2.131000000
H    -5.852000000     1.998000000     2.253000000
H    -4.411000000     2.419000000     2.059000000
O     5.471000000     0.780000000    -0.588000000
H     4.690000000     1.333000000    -0.586000000
H     5.778000000     0.803000000    -1.495000000
O     5.653000000     3.488000000    -4.518000000
H     4.725000000     3.629000000    -4.708000000
H     6.089000000     3.596000000    -5.364000000
O    -2.653000000     1.469000000    -1.989000000
H    -2.854000000     0.843000000    -1.293000000
H    -2.100000000     2.127000000    -1.567000000
O     5.814000000     7.112000000     2.459000000
H     5.478000000     7.920000000     2.071000000
H     5.065000000     6.516000000     2.458000000
O     2.676000000     2.212000000     3.698000000
H     3.381000000     1.565000000     3.717000000
H     2.659000000     2.521000000     2.792000000
O     3.161000000     1.615000000    -3.351000000
H     2.910000000     1.964000000    -2.496000000
H     2.871000000     2.280000000    -3.975000000
O     6.687000000     1.017000000    -3.258000000
H     6.190000000     1.816000000    -3.436000000
H     7.528000000     1.327000000    -2.924000000
O     5.990000000     3.570000000     2.211000000
H     5.737000000     2.647000000     2.209000000
H     5.161000000     4.045000000     2.272000000
O    -3.155000000    -4.898000000     0.439000000
H    -4.048000000    -4.564000000     0.361000000
H    -2.818000000    -4.497000000     1.241000000
O     5.023000000     1.046000000     2.336000000
H     4.910000000     0.856000000     1.405000000
H     5.541000000     0.314000000     2.669000000
O    -0.646000000    -2.848000000     2.770000000
H    -1.016000000    -2.750000000     3.648000000
H    -0.522000000    -3.792000000     2.667000000
O     2.407000000    -2.511000000    -6.719000000
H     1.820000000    -2.228000000    -7.420000000
H     2.330000000    -1.828000000    -6.053000000
O    -5.246000000    -1.173000000    -2.234000000
H    -5.091000000    -0.848000000    -1.347000000
H    -4.388000000    -1.135000000    -2.656000000
O    -2.182000000    -0.407000000     4.637000000
H    -2.075000000    -0.814000000     5.497000000
H    -1.363000000    -0.597000000     4.179000000
O     3.339000000     5.277000000     2.013000000
H     2.794000000     4.598000000     1.616000000
H     2.821000000     5.599000000     2.751000000
O    -0.976000000     0.805000000    -3.815000000
H    -0.308000000     1.449000000    -4.049000000
H    -1.569000000     1.278000000    -3.231000000
O    -1.276000000     4.530000000     3.355000000
H    -0.826000000     4.651000000     2.519000000
H    -2.200000000     4.677000000     3.153000000
O    -3.669000000    -2.200000000     1.720000000
H    -2.837000000    -2.483000000     2.100000000
H    -4.281000000    -2.198000000     2.456000000
O    -4.133000000    -5.140000000     3.192000000
H    -4.307000000    -5.830000000     3.833000000
H    -4.966000000    -5.023000000     2.735000000
O    -1.564000000    -3.805000000    -3.805000000
H    -1.623000000    -4.205000000    -2.937000000
H    -0.858000000    -4.281000000    -4.241000000
O     2.801000000     4.721000000     5.541000000
H     3.370000000     5.217000000     6.131000000
H     3.267000000     3.898000000     5.394000000
