158
-3022.29012
C    -0.346000000     1.133000000     0.905000000
H    -0.634000000     1.805000000     1.709000000
C    -0.939000000    -0.109000000     0.845000000
H    -1.826000000    -0.246000000     1.457000000
C    -0.641000000    -1.074000000    -0.118000000
H    -1.207000000    -2.012000000    -0.193000000
C     0.358000000    -0.824000000    -1.047000000
H     0.594000000    -1.579000000    -1.793000000
C     1.044000000     0.438000000    -0.867000000
H     1.864000000     0.609000000    -1.560000000
C     0.718000000     1.435000000     0.077000000
C     1.631000000     2.652000000     0.201000000
O     1.197000000     3.664000000     0.717000000
O     2.799000000     2.623000000    -0.154000000
O    -2.883000000    -1.769000000    -3.066000000
H    -3.352000000    -1.526000000    -2.268000000
H    -2.305000000    -1.026000000    -3.240000000
O     3.418000000    -3.626000000    -3.222000000
H     3.714000000    -3.206000000    -2.414000000
H     3.026000000    -4.451000000    -2.934000000
O     4.758000000     1.484000000     1.147000000
H     4.011000000     1.669000000     0.579000000
H     4.695000000     0.545000000     1.326000000
O    -5.565000000    -3.382000000     1.255000000
H    -5.079000000    -4.193000000     1.406000000
H    -5.438000000    -2.874000000     2.056000000
O     2.590000000     4.708000000     2.891000000
H     2.160000000     4.312000000     2.133000000
H     3.350000000     4.149000000     3.054000000
O    -5.994000000    -2.452000000    -2.806000000
H    -5.413000000    -2.034000000    -2.171000000
H    -5.845000000    -1.973000000    -3.620000000
O     4.245000000    -3.379000000    -0.312000000
H     4.261000000    -4.335000000    -0.363000000
H     3.542000000    -3.185000000     0.308000000
O     6.566000000     0.491000000    -1.694000000
H     7.265000000     1.006000000    -2.096000000
H     5.784000000     1.036000000    -1.786000000
O     1.828000000     5.909000000     5.136000000
H     2.359000000     5.740000000     4.358000000
H     2.007000000     6.824000000     5.354000000
O     1.207000000     0.336000000     3.496000000
H     1.531000000     0.471000000     2.606000000
H     0.944000000     1.208000000     3.791000000
O    -2.128000000    -6.455000000    -2.000000000
H    -1.756000000    -7.010000000    -2.685000000
H    -2.487000000    -5.702000000    -2.469000000
O     0.071000000     8.208000000    -1.243000000
H     0.217000000     7.506000000    -0.608000000
H     0.712000000     8.043000000    -1.934000000
O    -4.480000000    -5.615000000     1.984000000
H    -3.677000000    -6.109000000     2.147000000
H    -5.156000000    -6.284000000     1.878000000
O     4.369000000     2.123000000    -2.241000000
H     3.926000000     2.589000000    -1.533000000
H     3.688000000     1.986000000    -2.900000000
O    -0.947000000    -4.129000000     2.765000000
H    -1.661000000    -3.574000000     2.453000000
H    -0.932000000    -4.866000000     2.155000000
O    -4.351000000     0.769000000     3.204000000
H    -4.381000000     0.632000000     4.151000000
H    -3.809000000     1.551000000     3.092000000
O    -4.740000000    -1.190000000    -0.707000000
H    -4.865000000    -1.690000000     0.099000000
H    -4.618000000    -0.287000000    -0.413000000
O    -1.859000000     3.358000000    -2.082000000
H    -1.275000000     3.079000000    -2.787000000
H    -1.334000000     3.967000000    -1.563000000
O    -2.495000000     3.000000000     3.515000000
H    -2.072000000     3.814000000     3.787000000
H    -1.959000000     2.309000000     3.904000000
O    -3.272000000    -1.942000000     3.834000000
H    -3.302000000    -2.505000000     4.608000000
H    -3.958000000    -1.291000000     3.984000000
O    -3.881000000     3.927000000    -0.307000000
H    -3.147000000     4.320000000     0.165000000
H    -3.527000000     3.724000000    -1.173000000
O     2.022000000    -2.580000000     2.720000000
H     1.211000000    -3.060000000     2.551000000
H     2.019000000    -2.428000000     3.665000000
O    -1.282000000     5.147000000     4.679000000
H    -1.462000000     5.528000000     3.820000000
H    -0.331000000     5.035000000     4.697000000
O     5.487000000     1.610000000    -5.128000000
H     5.728000000     2.446000000    -4.728000000
H     4.619000000     1.417000000    -4.774000000
O    -1.525000000     1.542000000     6.712000000
H    -0.820000000     2.186000000     6.643000000
H    -1.451000000     1.018000000     5.915000000
O    -2.262000000    -4.077000000    -3.717000000
H    -2.558000000    -3.240000000    -3.360000000
H    -2.591000000    -4.084000000    -4.616000000
O    -0.601000000    -3.393000000     5.339000000
H    -1.346000000    -3.927000000     5.614000000
H    -0.578000000    -3.487000000     4.386000000
O     1.572000000    -7.419000000    -0.227000000
H     0.713000000    -7.080000000     0.026000000
H     1.414000000    -8.340000000    -0.436000000
O     3.905000000     6.881000000    -0.377000000
H     2.976000000     6.758000000    -0.572000000
H     4.262000000     5.993000000    -0.347000000
O    -1.504000000     4.821000000     0.823000000
H    -0.590000000     4.551000000     0.733000000
H    -1.475000000     5.571000000     1.417000000
O    -0.513000000     3.076000000    -4.429000000
H    -0.918000000     3.807000000    -4.897000000
H     0.123000000     2.718000000    -5.048000000
O     1.948000000     4.893000000    -1.807000000
H     1.850000000     4.302000000    -1.060000000
H     2.030000000     4.311000000    -2.563000000
O    -1.459000000     0.033000000    -5.043000000
H    -1.266000000     0.505000000    -4.233000000
H    -0.607000000    -0.072000000    -5.468000000
O    -1.716000000     0.657000000    -2.373000000
H    -1.980000000     1.539000000    -2.108000000
H    -1.265000000     0.302000000    -1.607000000
O     3.743000000    -0.944000000     1.518000000
H     3.627000000    -1.009000000     0.570000000
H     3.081000000    -1.532000000     1.882000000
O     4.244000000     2.373000000     3.677000000
H     5.053000000     2.884000000     3.693000000
H     4.253000000     1.937000000     2.825000000
O     5.039000000    -1.575000000    -5.100000000
H     5.426000000    -1.555000000    -4.225000000
H     4.160000000    -1.215000000    -4.981000000
O     4.575000000     4.315000000     0.893000000
H     5.279000000     3.674000000     0.983000000
H     3.858000000     3.829000000     0.486000000
O    -6.509000000    -1.344000000     2.898000000
H    -6.789000000    -1.447000000     3.808000000
H    -5.761000000    -0.748000000     2.944000000
O    -1.538000000     0.318000000     4.318000000
H    -0.728000000    -0.083000000     4.003000000
H    -2.228000000    -0.280000000     4.031000000
O    -3.983000000     1.226000000     0.347000000
H    -3.626000000     2.087000000     0.131000000
H    -4.215000000     1.288000000     1.274000000
O    -5.284000000    -5.283000000    -3.345000000
H    -4.893000000    -4.458000000    -3.060000000
H    -6.207000000    -5.207000000    -3.103000000
O     0.931000000     6.553000000     0.590000000
H     1.000000000     5.605000000     0.703000000
H     1.379000000     6.918000000     1.353000000
O     6.550000000     3.667000000    -3.149000000
H     5.979000000     3.058000000    -2.680000000
H     7.383000000     3.623000000    -2.680000000
O     2.500000000     1.473000000    -4.396000000
H     2.039000000     1.531000000    -5.233000000
H     2.285000000     0.601000000    -4.064000000
O    -1.177000000    -6.053000000     0.848000000
H    -1.405000000    -6.144000000    -0.078000000
H    -1.676000000    -6.743000000     1.286000000
O     2.549000000    -1.229000000    -4.213000000
H     1.976000000    -1.533000000    -4.918000000
H     2.943000000    -2.029000000    -3.864000000
O     0.392000000    -4.582000000    -5.418000000
H    -0.125000000    -4.504000000    -4.616000000
H     0.018000000    -5.337000000    -5.872000000
