158
-3048.28377
C    -1.280000000     0.483000000    -0.469000000
H    -2.216000000     0.849000000    -0.882000000
C    -0.749000000    -0.722000000    -0.738000000
H    -1.382000000    -1.385000000    -1.322000000
C     0.468000000    -1.128000000    -0.181000000
H     0.859000000    -2.101000000    -0.543000000
C     1.215000000    -0.223000000     0.500000000
H     2.227000000    -0.536000000     0.745000000
C     0.730000000     1.051000000     0.740000000
H     1.415000000     1.741000000     1.227000000
C    -0.532000000     1.426000000     0.288000000
C    -1.105000000     2.804000000     0.596000000
O    -2.316000000     3.001000000     0.476000000
O    -0.405000000     3.675000000     0.983000000
O    -2.138000000    -7.060000000    -1.636000000
H    -1.768000000    -6.535000000    -2.346000000
H    -3.007000000    -6.685000000    -1.489000000
O    -0.671000000    -3.567000000     3.024000000
H    -0.909000000    -2.644000000     2.935000000
H    -1.435000000    -4.044000000     2.700000000
O     1.635000000     1.964000000    -2.056000000
H     0.830000000     2.386000000    -2.356000000
H     2.227000000     2.690000000    -1.860000000
O    -1.852000000    -0.678000000    -4.335000000
H    -1.525000000    -1.368000000    -4.913000000
H    -1.232000000     0.042000000    -4.446000000
O     0.292000000     0.022000000     5.052000000
H    -0.230000000     0.821000000     5.126000000
H    -0.040000000    -0.410000000     4.265000000
O     1.899000000    -0.758000000    -2.759000000
H     1.218000000    -1.151000000    -2.214000000
H     1.739000000     0.184000000    -2.702000000
O    -1.053000000    -6.221000000     1.213000000
H    -1.198000000    -6.717000000     0.407000000
H    -1.930000000    -6.072000000     1.564000000
O    -5.583000000     0.046000000    -0.983000000
H    -6.088000000    -0.494000000    -1.591000000
H    -5.770000000     0.946000000    -1.249000000
O     3.535000000     3.640000000    -1.026000000
H     4.369000000     4.087000000    -1.173000000
H     3.061000000     4.213000000    -0.423000000
O    -0.799000000    -3.687000000    -2.194000000
H    -1.544000000    -3.865000000    -1.620000000
H    -0.897000000    -4.311000000    -2.914000000
O    -0.759000000     3.561000000    -3.133000000
H    -1.632000000     3.472000000    -2.751000000
H    -0.908000000     3.999000000    -3.971000000
O     0.562000000    -7.603000000    -1.271000000
H     0.882000000    -6.702000000    -1.313000000
H    -0.359000000    -7.542000000    -1.524000000
O    -3.481000000    -0.656000000     4.368000000
H    -4.433000000    -0.728000000     4.443000000
H    -3.344000000    -0.036000000     3.651000000
O    -4.054000000     5.208000000     3.623000000
H    -4.117000000     6.118000000     3.911000000
H    -3.595000000     5.253000000     2.784000000
O     1.798000000     4.966000000     0.585000000
H     1.094000000     4.333000000     0.728000000
H     1.388000000     5.672000000     0.087000000
O    -3.379000000    -4.096000000    -0.643000000
H    -3.427000000    -3.236000000    -0.226000000
H    -4.259000000    -4.243000000    -0.990000000
O    -3.476000000     1.468000000    -3.194000000
H    -4.169000000     1.091000000    -3.736000000
H    -2.791000000     0.800000000    -3.183000000
O     5.798000000    -0.913000000     0.500000000
H     5.158000000    -1.444000000     0.974000000
H     5.285000000    -0.458000000    -0.168000000
O     3.974000000     1.010000000    -0.535000000
H     4.037000000     1.956000000    -0.405000000
H     3.057000000     0.861000000    -0.768000000
O    -6.646000000     4.094000000    -0.239000000
H    -6.664000000     3.297000000     0.290000000
H    -5.716000000     4.308000000    -0.320000000
O    -3.259000000     2.632000000     4.202000000
H    -2.996000000     2.387000000     5.089000000
H    -3.604000000     3.520000000     4.291000000
O    -6.269000000     1.891000000     1.244000000
H    -6.208000000     1.813000000     2.196000000
H    -5.743000000     1.164000000     0.910000000
O     4.041000000    -3.825000000    -0.936000000
H     4.757000000    -4.441000000    -0.778000000
H     4.430000000    -3.139000000    -1.478000000
O     2.314000000     5.240000000     3.440000000
H     1.804000000     5.995000000     3.147000000
H     2.752000000     4.925000000     2.649000000
O    -2.967000000    -3.021000000    -5.045000000
H    -3.001000000    -2.366000000    -4.348000000
H    -2.323000000    -2.679000000    -5.664000000
O     4.296000000     1.194000000    -3.531000000
H     4.022000000     1.193000000    -2.613000000
H     4.793000000     2.005000000    -3.632000000
O    -0.886000000    -0.766000000     2.551000000
H    -1.758000000    -0.394000000     2.420000000
H    -0.478000000    -0.731000000     1.686000000
O     0.847000000     7.685000000    -0.165000000
H     0.704000000     7.205000000    -0.981000000
H     1.666000000     8.160000000    -0.308000000
O    -0.887000000     5.576000000     4.898000000
H    -0.830000000     4.700000000     4.516000000
H    -0.500000000     6.150000000     4.237000000
O    -3.150000000     0.852000000     2.096000000
H    -3.156000000     1.492000000     2.808000000
H    -3.109000000     1.380000000     1.299000000
O     1.487000000    -5.032000000    -1.300000000
H     2.195000000    -4.666000000    -0.769000000
H     0.984000000    -4.269000000    -1.586000000
O     0.048000000     1.261000000    -4.548000000
H     0.591000000     1.533000000    -5.288000000
H     0.096000000     1.993000000    -3.934000000
O    -3.292000000     8.036000000     2.008000000
H    -2.901000000     7.230000000     1.673000000
H    -4.132000000     8.102000000     1.553000000
O    -2.268000000     5.359000000     1.736000000
H    -2.510000000     4.531000000     1.321000000
H    -1.341000000     5.257000000     1.950000000
O     0.291000000     7.381000000     2.880000000
H     0.264000000     7.722000000     1.985000000
H     0.630000000     8.108000000     3.403000000
O     4.641000000    -3.220000000     1.781000000
H     4.396000000    -3.433000000     0.880000000
H     5.392000000    -3.783000000     1.965000000
O    -3.627000000     3.640000000    -1.591000000
H    -3.209000000     3.528000000    -0.737000000
H    -3.448000000     2.821000000    -2.053000000
O    -3.327000000    -5.151000000     2.012000000
H    -3.550000000    -4.971000000     1.099000000
H    -4.031000000    -4.745000000     2.516000000
O     3.011000000    -5.012000000    -3.874000000
H     3.412000000    -4.302000000    -3.373000000
H     2.350000000    -5.377000000    -3.285000000
O     4.499000000    -1.591000000     4.077000000
H     3.854000000    -1.836000000     4.741000000
H     4.239000000    -2.083000000     3.298000000
O     1.729000000    -5.178000000     1.929000000
H     0.835000000    -5.470000000     1.751000000
H     1.662000000    -4.225000000     1.992000000
O     4.146000000    -6.324000000     1.941000000
H     3.319000000    -5.856000000     2.057000000
H     4.217000000    -6.454000000     0.995000000
O     0.240000000     3.361000000     3.552000000
H    -0.125000000     3.181000000     2.686000000
H     1.008000000     3.906000000     3.379000000
O     0.355000000     6.033000000    -2.278000000
H    -0.070000000     5.177000000    -2.339000000
H    -0.181000000     6.606000000    -2.826000000
O     4.676000000    -1.760000000    -2.559000000
H     5.343000000    -1.234000000    -3.001000000
H     3.851000000    -1.318000000    -2.759000000
O    -4.419000000     5.768000000    -3.156000000
H    -4.916000000     5.306000000    -3.831000000
H    -4.211000000     5.095000000    -2.508000000
O     1.724000000    -1.546000000    -5.618000000
H     2.536000000    -1.182000000    -5.972000000
H     1.797000000    -1.418000000    -4.672000000
O    -4.487000000    -2.067000000     0.649000000
H    -4.873000000    -1.455000000     0.022000000
H    -4.195000000    -1.515000000     1.374000000
