158
-3059.18412
C    -1.466000000    -0.055000000    -0.149000000
H    -2.503000000    -0.211000000    -0.435000000
C    -0.662000000    -1.142000000    -0.307000000
H    -1.084000000    -2.141000000    -0.380000000
C     0.696000000    -0.995000000    -0.048000000
H     1.295000000    -1.866000000     0.042000000
C     1.263000000     0.270000000     0.226000000
H     2.308000000     0.362000000     0.510000000
C     0.432000000     1.428000000     0.280000000
H     0.923000000     2.370000000     0.511000000
C    -0.979000000     1.240000000     0.050000000
C    -1.891000000     2.481000000    -0.061000000
O    -3.082000000     2.382000000    -0.196000000
O    -1.344000000     3.625000000    -0.041000000
O     0.957000000     2.192000000    -3.381000000
H     0.075000000     2.562000000    -3.333000000
H     1.513000000     2.843000000    -2.953000000
O    -1.282000000    -2.035000000     4.488000000
H    -1.676000000    -2.892000000     4.652000000
H    -1.958000000    -1.546000000     4.019000000
O    -0.571000000     1.027000000     3.836000000
H    -0.612000000     1.934000000     3.533000000
H    -1.068000000     0.534000000     3.183000000
O     0.652000000    -0.759000000    -2.996000000
H     0.239000000    -0.866000000    -2.139000000
H     0.857000000     0.174000000    -3.048000000
O    -1.423000000    -5.691000000     0.418000000
H    -0.777000000    -5.099000000     0.033000000
H    -2.252000000    -5.218000000     0.351000000
O    -5.526000000    -0.259000000    -2.448000000
H    -5.953000000    -0.827000000    -3.089000000
H    -5.010000000     0.351000000    -2.975000000
O     1.063000000    -4.249000000     5.300000000
H     0.466000000    -3.632000000     4.876000000
H     0.552000000    -4.620000000     6.019000000
O     2.567000000     4.045000000    -2.055000000
H     3.395000000     3.971000000    -1.579000000
H     1.962000000     4.433000000    -1.423000000
O    -0.694000000    -2.995000000    -3.336000000
H    -1.632000000    -2.824000000    -3.254000000
H    -0.297000000    -2.126000000    -3.402000000
O    -3.625000000     6.373000000     3.412000000
H    -3.516000000     5.966000000     2.553000000
H    -3.283000000     5.726000000     4.029000000
O    -1.733000000     3.769000000    -3.202000000
H    -2.642000000     4.006000000    -3.385000000
H    -1.746000000     3.443000000    -2.302000000
O    -0.909000000    -6.860000000    -2.207000000
H    -0.502000000    -6.167000000    -1.687000000
H    -1.392000000    -6.395000000    -2.890000000
O    -4.562000000    -2.523000000     1.108000000
H    -4.481000000    -3.441000000     0.847000000
H    -5.384000000    -2.233000000     0.712000000
O    -4.610000000     3.345000000     3.487000000
H    -3.969000000     3.588000000     4.154000000
H    -4.372000000     3.871000000     2.723000000
O     0.707000000     5.281000000    -0.559000000
H    -0.088000000     4.755000000    -0.480000000
H     0.499000000     5.930000000    -1.232000000
O     7.422000000    -3.316000000    -0.333000000
H     6.782000000    -3.324000000    -1.045000000
H     6.902000000    -3.454000000     0.458000000
O     1.637000000     3.181000000     4.979000000
H     1.725000000     2.264000000     4.720000000
H     2.034000000     3.673000000     4.260000000
O    -3.603000000    -3.531000000    -3.057000000
H    -4.292000000    -3.035000000    -3.499000000
H    -4.045000000    -3.949000000    -2.318000000
O     5.561000000    -3.886000000    -2.148000000
H     6.297000000    -4.217000000    -2.662000000
H     5.296000000    -3.085000000    -2.599000000
O     4.176000000     0.670000000    -2.746000000
H     3.423000000     1.196000000    -2.475000000
H     4.884000000     0.951000000    -2.167000000
O    -7.951000000     3.516000000    -1.099000000
H    -8.194000000     2.685000000    -0.692000000
H    -7.089000000     3.353000000    -1.481000000
O     5.018000000     3.626000000    -0.904000000
H     4.901000000     4.164000000    -0.120000000
H     5.464000000     2.839000000    -0.590000000
O     5.807000000    -3.559000000     2.242000000
H     5.748000000    -2.798000000     2.819000000
H     4.907000000    -3.875000000     2.168000000
O     3.477000000     3.761000000     1.966000000
H     4.007000000     4.475000000     1.610000000
H     2.580000000     4.095000000     1.944000000
O    -4.388000000     0.739000000     4.094000000
H    -3.948000000     0.923000000     4.924000000
H    -4.650000000     1.600000000     3.766000000
O    -8.275000000     1.234000000     0.539000000
H    -8.342000000     1.978000000     1.138000000
H    -7.345000000     1.008000000     0.540000000
O     3.110000000    -5.320000000    -1.612000000
H     3.897000000    -4.796000000    -1.761000000
H     3.415000000    -6.227000000    -1.651000000
O     1.218000000     5.113000000     2.316000000
H     1.008000000     5.284000000     1.398000000
H     1.164000000     5.971000000     2.738000000
O     4.907000000    -1.741000000    -3.553000000
H     4.619000000    -0.891000000    -3.221000000
H     5.438000000    -1.531000000    -4.321000000
O    -2.991000000    -0.872000000     2.592000000
H    -3.558000000    -0.265000000     3.068000000
H    -3.596000000    -1.475000000     2.160000000
O    -0.135000000     6.648000000    -2.638000000
H    -1.040000000     6.465000000    -2.387000000
H    -0.144000000     6.635000000    -3.595000000
O    -2.438000000     4.442000000     4.684000000
H    -2.032000000     5.223000000     5.058000000
H    -1.707000000     3.940000000     4.324000000
O    -5.723000000     1.023000000     0.330000000
H    -4.857000000     1.309000000     0.622000000
H    -5.663000000     1.019000000    -0.626000000
O     0.514000000    -4.573000000    -1.357000000
H     1.434000000    -4.836000000    -1.384000000
H     0.393000000    -4.045000000    -2.146000000
O    -3.979000000     4.665000000     1.162000000
H    -4.626000000     5.119000000     0.622000000
H    -3.935000000     3.783000000     0.792000000
O     1.157000000    -5.473000000     2.688000000
H     1.379000000    -5.301000000     3.603000000
H     0.539000000    -4.780000000     2.456000000
O    -5.439000000     2.742000000    -1.742000000
H    -4.588000000     2.490000000    -1.383000000
H    -5.391000000     2.498000000    -2.666000000
O     3.374000000    -1.384000000     2.389000000
H     3.755000000    -2.186000000     2.032000000
H     2.880000000    -1.674000000     3.156000000
O     3.529000000     1.400000000     3.574000000
H     3.529000000     2.014000000     2.840000000
H     3.811000000     0.569000000     3.192000000
O     6.269000000     1.108000000    -0.706000000
H     6.571000000     1.097000000     0.203000000
H     7.062000000     0.964000000    -1.223000000
O    -0.300000000    -3.263000000     2.177000000
H    -0.702000000    -2.876000000     2.955000000
H    -0.199000000    -2.530000000     1.570000000
O     1.324000000    -8.109000000     0.849000000
H     0.952000000    -7.260000000     0.610000000
H     1.798000000    -7.942000000     1.664000000
O     3.201000000    -4.081000000     1.392000000
H     3.103000000    -4.281000000     0.461000000
H     2.510000000    -4.586000000     1.820000000
O    -2.290000000     5.748000000    -1.203000000
H    -3.244000000     5.679000000    -1.201000000
H    -1.994000000     4.995000000    -0.691000000
O    -0.916000000     3.570000000     2.824000000
H    -1.209000000     3.504000000     1.915000000
H    -0.170000000     4.169000000     2.792000000
O     2.264000000    -2.236000000    -4.699000000
H     3.091000000    -2.305000000    -4.220000000
H     1.757000000    -1.590000000    -4.207000000
O    -5.163000000     6.151000000    -1.209000000
H    -5.524000000     5.985000000    -2.080000000
H    -5.284000000     7.090000000    -1.074000000
O    -6.758000000    -1.477000000    -0.317000000
H    -6.529000000    -1.275000000    -1.224000000
H    -6.466000000    -0.712000000     0.179000000
