158
-2994.37081
C     1.019000000    -1.049000000    -0.351000000
H     1.683000000    -1.846000000    -0.674000000
C     0.827000000     0.141000000    -1.060000000
H     1.359000000     0.330000000    -1.989000000
C    -0.170000000     1.036000000    -0.637000000
H    -0.339000000     2.014000000    -1.196000000
C    -0.874000000     0.800000000     0.541000000
H    -1.564000000     1.544000000     0.930000000
C    -0.640000000    -0.350000000     1.246000000
H    -1.250000000    -0.626000000     2.102000000
C     0.291000000    -1.310000000     0.841000000
C     0.351000000    -2.637000000     1.543000000
O    -0.493000000    -2.890000000     2.391000000
O     1.129000000    -3.510000000     1.222000000
O    -4.796000000    -6.197000000     2.678000000
H    -4.232000000    -5.486000000     2.375000000
H    -4.224000000    -6.745000000     3.216000000
O     5.716000000     1.006000000    -1.525000000
H     6.202000000     0.187000000    -1.617000000
H     4.975000000     0.782000000    -0.962000000
O     0.102000000     1.853000000    -4.793000000
H     0.617000000     1.073000000    -4.586000000
H     0.599000000     2.577000000    -4.411000000
O    -3.049000000    -3.917000000     2.233000000
H    -2.100000000    -3.800000000     2.200000000
H    -3.389000000    -3.051000000     2.459000000
O     6.382000000    -2.384000000     0.575000000
H     6.410000000    -1.915000000    -0.259000000
H     5.487000000    -2.719000000     0.631000000
O    -3.014000000     3.446000000    -0.716000000
H    -3.337000000     4.299000000    -1.007000000
H    -3.725000000     3.090000000    -0.182000000
O     3.004000000    -4.689000000    -1.084000000
H     2.447000000    -3.917000000    -0.986000000
H     3.600000000    -4.465000000    -1.799000000
O     2.516000000     3.321000000     3.491000000
H     2.180000000     3.031000000     2.643000000
H     2.352000000     4.264000000     3.504000000
O     2.134000000     7.153000000    -3.212000000
H     1.220000000     6.893000000    -3.098000000
H     2.122000000     7.748000000    -3.962000000
O     4.035000000     1.019000000     0.767000000
H     3.793000000     0.277000000     1.322000000
H     3.462000000     1.730000000     1.054000000
O     2.889000000     3.975000000    -2.591000000
H     2.138000000     4.326000000    -2.113000000
H     2.621000000     4.001000000    -3.510000000
O     2.239000000    -6.996000000     4.362000000
H     1.960000000    -6.513000000     3.583000000
H     2.567000000    -7.828000000     4.022000000
O     1.637000000    -6.086000000     1.824000000
H     1.463000000    -5.218000000     1.458000000
H     1.531000000    -6.683000000     1.084000000
O    -4.761000000     0.721000000    -4.304000000
H    -4.953000000     0.940000000    -3.392000000
H    -3.850000000     0.426000000    -4.293000000
O     1.867000000     2.791000000     0.906000000
H     1.541000000     3.362000000     0.211000000
H     1.358000000     1.986000000     0.813000000
O    -0.352000000    -4.655000000    -0.912000000
H     0.071000000    -4.383000000    -0.098000000
H    -0.265000000    -3.899000000    -1.492000000
O    -3.914000000    -0.632000000     4.984000000
H    -2.987000000    -0.686000000     4.751000000
H    -4.134000000    -1.509000000     5.299000000
O    -2.562000000     3.731000000     3.002000000
H    -2.278000000     3.378000000     3.846000000
H    -3.360000000     4.220000000     3.204000000
O     5.052000000     5.021000000    -1.416000000
H     5.648000000     4.307000000    -1.192000000
H     4.374000000     4.609000000    -1.951000000
O     6.398000000    -1.607000000    -2.241000000
H     7.332000000    -1.790000000    -2.347000000
H     5.979000000    -2.467000000    -2.281000000
O     2.913000000    -0.945000000     2.650000000
H     2.055000000    -0.960000000     3.073000000
H     3.427000000    -0.329000000     3.173000000
O     1.256000000    -0.581000000    -4.273000000
H     2.140000000    -0.847000000    -4.023000000
H     1.260000000    -0.605000000    -5.230000000
O     1.104000000     6.355000000     1.660000000
H     0.590000000     5.689000000     1.203000000
H     1.164000000     7.080000000     1.038000000
O    -0.615000000     6.140000000    -3.151000000
H    -1.414000000     5.989000000    -2.646000000
H    -0.926000000     6.444000000    -4.004000000
O     3.484000000    -4.061000000     5.641000000
H     3.876000000    -4.833000000     5.233000000
H     2.630000000    -3.974000000     5.219000000
O    -2.382000000    -0.987000000    -1.486000000
H    -1.546000000    -0.609000000    -1.212000000
H    -2.615000000    -0.502000000    -2.278000000
O    -1.671000000    -2.027000000     4.626000000
H    -1.670000000    -2.725000000     5.280000000
H    -1.425000000    -2.463000000     3.810000000
O     5.698000000    -4.057000000     3.393000000
H     5.281000000    -3.842000000     2.559000000
H     6.019000000    -4.951000000     3.277000000
O    -2.438000000    -4.182000000     6.043000000
H    -2.049000000    -4.921000000     5.576000000
H    -2.328000000    -4.399000000     6.969000000
O     3.838000000    -3.243000000     1.484000000
H     3.466000000    -2.436000000     1.840000000
H     3.105000000    -3.858000000     1.465000000
O     0.980000000    -3.915000000     4.550000000
H     0.535000000    -3.551000000     3.784000000
H     0.280000000    -4.312000000     5.068000000
O     1.071000000    -0.644000000     4.861000000
H     0.226000000    -1.032000000     4.635000000
H     0.856000000     0.240000000     5.160000000
O    -4.957000000    -1.097000000    -0.858000000
H    -4.018000000    -0.917000000    -0.894000000
H    -5.259000000    -0.640000000    -0.073000000
O     5.079000000    -6.811000000     2.294000000
H     5.148000000    -7.557000000     1.697000000
H     4.343000000    -6.301000000     1.955000000
O    -2.022000000     2.504000000     5.326000000
H    -1.094000000     2.737000000     5.297000000
H    -2.323000000     2.824000000     6.176000000
O     4.080000000    -1.747000000    -4.471000000
H     4.516000000    -1.406000000    -3.690000000
H     4.553000000    -1.350000000    -5.202000000
O    -4.563000000    -1.161000000     2.488000000
H    -4.520000000    -1.190000000     3.444000000
H    -4.531000000    -0.229000000     2.275000000
O     1.345000000    -6.825000000    -0.898000000
H     0.641000000    -6.177000000    -0.877000000
H     2.148000000    -6.305000000    -0.944000000
O    -2.146000000     0.985000000    -3.389000000
H    -2.521000000     1.645000000    -2.805000000
H    -1.296000000     1.345000000    -3.643000000
O    -1.281000000     0.412000000    -6.910000000
H    -1.308000000     1.065000000    -7.610000000
H    -0.850000000     0.859000000    -6.182000000
O     2.152000000     4.260000000    -5.227000000
H     2.875000000     3.948000000    -5.771000000
H     1.395000000     4.260000000    -5.812000000
O    -0.160000000    -2.776000000    -2.847000000
H    -0.193000000    -3.226000000    -3.691000000
H     0.105000000    -1.881000000    -3.063000000
O     0.808000000     4.777000000    -1.214000000
H     0.382000000     5.495000000    -1.683000000
H     0.228000000     4.596000000    -0.475000000
O    -5.472000000     2.985000000     0.604000000
H    -5.960000000     3.177000000    -0.196000000
H    -6.138000000     2.955000000     1.290000000
O    -3.776000000     1.510000000     2.272000000
H    -4.401000000     1.868000000     1.642000000
H    -3.170000000     2.230000000     2.444000000
O     2.948000000    -4.151000000    -4.385000000
H     2.000000000    -4.051000000    -4.477000000
H     3.279000000    -3.255000000    -4.319000000
O    -3.175000000     6.068000000    -1.947000000
H    -3.114000000     6.898000000    -1.473000000
H    -3.948000000     6.167000000    -2.503000000
O    -0.805000000     4.216000000     0.641000000
H    -1.477000000     3.865000000     0.056000000
H    -1.255000000     4.337000000     1.477000000
