158
-3008.00760
C    -1.318000000     0.459000000     0.417000000
H    -2.311000000     0.831000000     0.657000000
C    -0.848000000    -0.799000000     0.587000000
H    -1.359000000    -1.553000000     1.181000000
C     0.438000000    -1.135000000     0.110000000
H     0.760000000    -2.155000000     0.273000000
C     1.175000000    -0.254000000    -0.692000000
H     2.077000000    -0.624000000    -1.173000000
C     0.741000000     1.053000000    -0.809000000
H     1.269000000     1.834000000    -1.350000000
C    -0.483000000     1.421000000    -0.228000000
C    -0.937000000     2.857000000    -0.210000000
O    -1.897000000     3.131000000     0.484000000
O    -0.238000000     3.746000000    -0.620000000
O     0.610000000     3.612000000    -4.097000000
H    -0.003000000     4.279000000    -3.788000000
H     1.465000000     4.040000000    -4.065000000
O    -0.166000000    -2.842000000     3.161000000
H    -0.288000000    -3.701000000     3.564000000
H    -1.005000000    -2.398000000     3.282000000
O    -0.290000000     1.840000000     5.092000000
H    -0.490000000     2.306000000     4.280000000
H     0.232000000     1.087000000     4.814000000
O    -1.701000000    -2.018000000    -2.030000000
H    -1.244000000    -1.428000000    -1.430000000
H    -1.515000000    -2.894000000    -1.694000000
O     0.909000000    -6.666000000     0.212000000
H     0.819000000    -5.887000000    -0.336000000
H     1.734000000    -6.536000000     0.680000000
O    -6.633000000    -0.689000000    -1.771000000
H    -7.139000000     0.111000000    -1.630000000
H    -5.731000000    -0.387000000    -1.878000000
O    -1.083000000    -4.941000000     4.448000000
H    -1.029000000    -5.897000000     4.438000000
H    -1.835000000    -4.749000000     5.009000000
O     2.889000000     5.577000000    -3.756000000
H     3.238000000     5.240000000    -2.931000000
H     3.627000000     5.532000000    -4.364000000
O    -1.492000000    -4.675000000    -1.245000000
H    -2.170000000    -4.597000000    -0.574000000
H    -1.788000000    -5.396000000    -1.801000000
O    -2.816000000     7.678000000     2.342000000
H    -3.294000000     7.364000000     3.109000000
H    -2.662000000     6.893000000     1.817000000
O    -1.359000000     5.357000000    -2.571000000
H    -0.921000000     4.761000000    -1.964000000
H    -0.787000000     6.123000000    -2.611000000
O     4.633000000    -6.207000000     0.967000000
H     4.112000000    -7.001000000     0.855000000
H     5.161000000    -6.152000000     0.171000000
O     5.634000000    -2.588000000    -0.228000000
H     6.291000000    -2.093000000    -0.716000000
H     6.008000000    -3.465000000    -0.144000000
O    -3.843000000     2.577000000     2.337000000
H    -3.689000000     3.349000000     2.881000000
H    -3.185000000     2.637000000     1.644000000
O     1.502000000     5.053000000     0.788000000
H     0.807000000     4.636000000     0.278000000
H     2.308000000     4.829000000     0.322000000
O     1.566000000     5.299000000     4.102000000
H     1.974000000     6.028000000     3.634000000
H     1.057000000     4.840000000     3.434000000
O    -4.156000000    -3.829000000    -0.319000000
H    -4.673000000    -4.625000000    -0.445000000
H    -4.603000000    -3.168000000    -0.847000000
O     5.122000000     1.223000000    -1.713000000
H     5.194000000     0.976000000    -0.791000000
H     6.028000000     1.286000000    -2.015000000
O     4.597000000    -2.065000000    -5.097000000
H     5.175000000    -1.497000000    -4.587000000
H     5.131000000    -2.834000000    -5.295000000
O     2.719000000    -5.170000000    -4.047000000
H     3.322000000    -5.458000000    -4.732000000
H     3.286000000    -4.918000000    -3.319000000
O     0.485000000     7.284000000    -0.201000000
H     0.221000000     7.181000000    -1.115000000
H     0.680000000     6.395000000     0.094000000
O    -2.106000000    -0.594000000    -5.093000000
H    -2.417000000    -1.490000000    -5.226000000
H    -1.187000000    -0.694000000    -4.846000000
O     4.213000000     3.857000000     0.030000000
H     4.436000000     3.024000000    -0.385000000
H     3.903000000     3.615000000     0.903000000
O     4.930000000     0.766000000     1.070000000
H     4.835000000    -0.186000000     1.045000000
H     4.411000000     1.038000000     1.827000000
O     4.693000000    -4.235000000     2.973000000
H     3.957000000    -4.454000000     3.544000000
H     4.743000000    -4.964000000     2.355000000
O    -3.288000000     0.304000000     3.736000000
H    -2.766000000     0.578000000     4.490000000
H    -3.523000000     1.122000000     3.298000000
O    -6.665000000     2.704000000     1.552000000
H    -6.738000000     2.155000000     2.333000000
H    -5.758000000     3.011000000     1.560000000
O     3.008000000    -3.181000000     0.162000000
H     3.862000000    -2.957000000    -0.209000000
H     2.589000000    -3.719000000    -0.510000000
O    -3.655000000    -2.745000000    -3.886000000
H    -3.922000000    -1.826000000    -3.890000000
H    -3.030000000    -2.809000000    -3.163000000
O     4.995000000     2.081000000    -4.303000000
H     4.938000000     1.739000000    -3.411000000
H     5.575000000     1.470000000    -4.757000000
O    -3.394000000    -2.354000000     2.871000000
H    -3.284000000    -1.403000000     2.883000000
H    -3.945000000    -2.522000000     2.106000000
O     0.602000000     7.208000000    -2.942000000
H     1.506000000     7.229000000    -2.627000000
H     0.628000000     7.677000000    -3.776000000
O    -3.813000000     5.049000000     3.887000000
H    -4.018000000     4.415000000     4.574000000
H    -4.650000000     5.473000000     3.696000000
O    -4.157000000     0.033000000    -2.462000000
H    -4.319000000     0.969000000    -2.345000000
H    -3.204000000    -0.042000000    -2.503000000
O     1.230000000    -4.471000000    -1.567000000
H     0.351000000    -4.440000000    -1.189000000
H     1.084000000    -4.645000000    -2.497000000
O     0.128000000     1.007000000    -4.411000000
H    -0.828000000     0.957000000    -4.388000000
H     0.334000000     1.839000000    -3.983000000
O    -3.938000000     2.560000000    -1.529000000
H    -4.389000000     3.404000000    -1.534000000
H    -3.119000000     2.728000000    -1.063000000
O     1.999000000    -6.754000000     3.241000000
H     2.523000000    -6.313000000     3.910000000
H     1.671000000    -6.044000000     2.688000000
O     1.433000000    -0.132000000     4.040000000
H     1.527000000    -0.974000000     3.595000000
H     2.034000000     0.452000000     3.577000000
O     0.571000000    -3.918000000    -5.281000000
H     0.617000000    -3.095000000    -4.795000000
H     1.152000000    -4.511000000    -4.803000000
O     1.562000000    -4.582000000     1.875000000
H     0.878000000    -3.973000000     2.154000000
H     2.243000000    -4.023000000     1.502000000
O     3.870000000    -1.422000000     2.291000000
H     3.808000000    -1.780000000     1.405000000
H     4.229000000    -2.138000000     2.815000000
O    -2.390000000     5.768000000     0.540000000
H    -2.584000000     6.097000000    -0.337000000
H    -2.174000000     4.845000000     0.407000000
O    -1.146000000     3.994000000     3.169000000
H    -1.198000000     3.929000000     2.216000000
H    -1.909000000     4.517000000     3.415000000
O    -1.381000000     5.490000000    -5.546000000
H    -1.496000000     5.573000000    -4.599000000
H    -1.938000000     4.752000000    -5.791000000
O     1.098000000    -1.549000000    -3.899000000
H     0.920000000    -0.609000000    -3.907000000
H     1.534000000    -1.704000000    -3.061000000
O    -4.497000000     6.671000000    -1.106000000
H    -4.228000000     6.681000000    -2.025000000
H    -5.402000000     6.360000000    -1.124000000
O    -4.221000000    -3.028000000     5.638000000
H    -3.739000000    -2.774000000     4.851000000
H    -3.956000000    -3.933000000     5.800000000
