158
-3041.71051
C    -1.189000000     0.557000000    -0.755000000
H    -2.117000000     0.969000000    -1.144000000
C    -0.810000000    -0.809000000    -0.748000000
H    -1.405000000    -1.612000000    -1.175000000
C     0.318000000    -1.198000000    -0.039000000
H     0.559000000    -2.208000000    -0.016000000
C     1.113000000    -0.263000000     0.635000000
H     1.929000000    -0.630000000     1.251000000
C     0.827000000     1.120000000     0.520000000
H     1.450000000     1.853000000     1.026000000
C    -0.299000000     1.563000000    -0.227000000
C    -0.680000000     3.012000000    -0.118000000
O    -1.668000000     3.375000000    -0.715000000
O    -0.147000000     3.796000000     0.620000000
O    -3.614000000     5.860000000     2.315000000
H    -3.148000000     6.672000000     2.516000000
H    -3.044000000     5.167000000     2.647000000
O     5.729000000    -3.463000000    -2.094000000
H     6.503000000    -3.881000000    -1.716000000
H     5.143000000    -3.327000000    -1.349000000
O     3.603000000     1.146000000     3.113000000
H     4.406000000     1.330000000     3.600000000
H     3.027000000     1.884000000     3.314000000
O    -3.616000000     5.740000000    -0.623000000
H    -2.964000000     5.043000000    -0.699000000
H    -3.848000000     5.752000000     0.305000000
O    -5.346000000    -1.250000000    -3.248000000
H    -5.516000000    -0.557000000    -3.886000000
H    -5.810000000    -0.969000000    -2.459000000
O    -3.576000000    -3.342000000    -2.277000000
H    -4.239000000    -3.980000000    -2.542000000
H    -3.965000000    -2.493000000    -2.486000000
O     3.545000000    -3.027000000    -3.865000000
H     3.326000000    -2.404000000    -3.172000000
H     4.366000000    -3.425000000    -3.578000000
O    -0.399000000     5.693000000     4.769000000
H    -0.076000000     5.596000000     3.873000000
H     0.387000000     5.644000000     5.313000000
O     1.909000000    -0.891000000    -2.746000000
H     2.365000000    -0.063000000    -2.597000000
H     1.420000000    -1.045000000    -1.938000000
O    -2.842000000     6.730000000    -3.055000000
H    -2.176000000     6.281000000    -3.575000000
H    -3.145000000     6.069000000    -2.432000000
O     0.838000000    -6.447000000    -0.826000000
H     0.192000000    -6.006000000    -1.377000000
H     1.573000000    -5.836000000    -0.782000000
O     4.119000000    -1.952000000    -0.454000000
H     4.282000000    -1.181000000    -0.999000000
H     4.361000000    -1.675000000     0.430000000
O     3.580000000     2.689000000    -0.994000000
H     3.335000000     2.892000000    -0.091000000
H     4.409000000     3.149000000    -1.126000000
O     0.958000000    -4.552000000     4.285000000
H     0.403000000    -3.786000000     4.138000000
H     1.719000000    -4.210000000     4.754000000
O     0.584000000    -7.813000000     1.463000000
H     0.249000000    -7.138000000     2.053000000
H     0.603000000    -7.391000000     0.604000000
O     0.889000000    -0.230000000    -5.114000000
H     0.009000000    -0.532000000    -5.337000000
H     1.075000000    -0.636000000    -4.267000000
O    -0.694000000    -2.381000000     3.660000000
H    -0.943000000    -1.768000000     4.352000000
H    -0.812000000    -1.887000000     2.849000000
O     1.592000000    -5.515000000    -3.946000000
H     2.097000000    -4.737000000    -3.711000000
H     0.774000000    -5.426000000    -3.458000000
O    -1.917000000    -2.960000000    -4.326000000
H    -2.509000000    -2.837000000    -3.584000000
H    -1.963000000    -2.134000000    -4.808000000
O    -0.578000000     5.981000000    -0.932000000
H    -0.558000000     5.285000000    -0.275000000
H    -0.829000000     5.538000000    -1.742000000
O     3.898000000    -5.263000000     2.932000000
H     4.544000000    -4.579000000     2.757000000
H     3.105000000    -4.963000000     2.488000000
O    -2.038000000     3.785000000     2.751000000
H    -1.866000000     3.220000000     3.504000000
H    -1.256000000     3.704000000     2.206000000
O     4.432000000     4.426000000     0.971000000
H     4.209000000     4.780000000     1.832000000
H     4.839000000     5.159000000     0.509000000
O    -5.445000000     2.003000000    -1.209000000
H    -5.798000000     1.120000000    -1.097000000
H    -4.839000000     2.113000000    -0.476000000
O    -1.800000000     7.996000000     2.812000000
H    -1.454000000     8.689000000     3.375000000
H    -1.024000000     7.538000000     2.492000000
O    -2.840000000    -0.181000000     2.203000000
H    -2.993000000     0.527000000     1.578000000
H    -2.868000000     0.244000000     3.059000000
O     5.252000000    -0.490000000     1.780000000
H     4.483000000     0.010000000     2.052000000
H     5.751000000     0.117000000     1.233000000
O    -5.095000000    -1.528000000     1.525000000
H    -4.313000000    -1.089000000     1.860000000
H    -4.782000000    -2.382000000     1.228000000
O    -2.072000000    -4.477000000     2.381000000
H    -1.537000000    -3.786000000     2.772000000
H    -1.606000000    -5.287000000     2.588000000
O    -0.741000000    -4.811000000    -2.584000000
H    -1.343000000    -4.225000000    -3.044000000
H    -0.331000000    -4.259000000    -1.919000000
O    -0.700000000    -6.477000000     3.606000000
H    -0.999000000    -6.882000000     4.420000000
H     0.040000000    -5.929000000     3.868000000
O    -2.777000000     1.988000000    -5.410000000
H    -3.663000000     1.915000000    -5.764000000
H    -2.883000000     2.491000000    -4.602000000
O     1.750000000     3.690000000     2.573000000
H     1.027000000     3.596000000     1.954000000
H     2.508000000     3.897000000     2.026000000
O     1.263000000     6.439000000     2.606000000
H     1.752000000     7.231000000     2.382000000
H     1.844000000     5.720000000     2.357000000
O    -1.861000000    -0.560000000    -5.953000000
H    -2.337000000    -0.457000000    -6.778000000
H    -2.004000000     0.264000000    -5.489000000
O    -1.070000000     2.901000000     5.103000000
H    -0.947000000     3.846000000     5.023000000
H    -1.661000000     2.798000000     5.849000000
O     2.691000000    -4.559000000    -0.642000000
H     2.867000000    -3.685000000    -0.294000000
H     3.422000000    -5.093000000    -0.331000000
O     1.035000000     8.644000000    -0.868000000
H     0.801000000     7.729000000    -0.712000000
H     0.316000000     8.987000000    -1.399000000
O    -3.103000000     3.155000000    -2.984000000
H    -2.423000000     3.162000000    -2.310000000
H    -3.924000000     3.101000000    -2.495000000
O    -6.399000000    -0.525000000    -0.785000000
H    -5.954000000    -1.119000000    -0.180000000
H    -7.329000000    -0.629000000    -0.581000000
O     4.620000000     0.183000000    -2.109000000
H     4.303000000     1.036000000    -1.811000000
H     5.516000000     0.348000000    -2.401000000
O     1.980000000     4.075000000     5.532000000
H     1.957000000     3.996000000     4.578000000
H     2.820000000     4.495000000     5.717000000
O     5.094000000    -5.666000000     0.412000000
H     5.967000000    -5.463000000     0.075000000
H     5.249000000    -6.300000000     1.112000000
O    -3.414000000     2.194000000     0.856000000
H    -2.907000000     2.695000000     0.217000000
H    -3.128000000     2.529000000     1.705000000
O     5.753000000    -3.088000000     3.497000000
H     5.373000000    -2.224000000     3.339000000
H     6.667000000    -3.000000000     3.226000000
O    -0.990000000     4.779000000    -3.482000000
H    -0.210000000     4.238000000    -3.360000000
H    -1.711000000     4.152000000    -3.529000000
O     1.596000000     3.040000000    -3.315000000
H     1.824000000     2.609000000    -2.492000000
H     1.726000000     2.367000000    -3.983000000
O    -4.278000000    -3.870000000     0.705000000
H    -3.597000000    -4.157000000     1.313000000
H    -3.835000000    -3.811000000    -0.141000000
