158
-3014.11466
C    -0.524000000     0.821000000    -1.120000000
H    -1.023000000     1.372000000    -1.913000000
C    -0.857000000    -0.560000000    -0.863000000
H    -1.539000000    -1.102000000    -1.512000000
C    -0.265000000    -1.188000000     0.175000000
H    -0.545000000    -2.262000000     0.350000000
C     0.607000000    -0.515000000     1.029000000
H     0.991000000    -1.013000000     1.916000000
C     0.802000000     0.875000000     0.874000000
H     1.338000000     1.399000000     1.661000000
C     0.230000000     1.571000000    -0.220000000
C     0.641000000     3.031000000    -0.379000000
O    -0.043000000     3.703000000    -1.139000000
O     1.630000000     3.446000000     0.215000000
O    -1.248000000     6.458000000     1.700000000
H    -0.552000000     7.070000000     1.940000000
H    -1.126000000     5.714000000     2.290000000
O    -4.544000000     4.614000000    -3.347000000
H    -3.703000000     4.728000000    -2.905000000
H    -4.492000000     3.743000000    -3.742000000
O     5.629000000     1.889000000     2.793000000
H     6.523000000     2.142000000     2.563000000
H     5.126000000     2.030000000     1.991000000
O     3.319000000    -2.889000000     3.715000000
H     2.972000000    -3.780000000     3.682000000
H     4.264000000    -2.995000000     3.601000000
O    -0.160000000     6.303000000    -0.734000000
H     0.305000000     5.471000000    -0.824000000
H    -0.769000000     6.160000000    -0.009000000
O    -5.127000000    -2.414000000    -4.097000000
H    -5.797000000    -2.530000000    -4.771000000
H    -5.296000000    -1.543000000    -3.739000000
O     3.854000000     0.050000000     5.587000000
H     3.588000000    -0.351000000     6.415000000
H     3.031000000     0.225000000     5.131000000
O    -2.908000000    -3.517000000    -2.795000000
H    -2.974000000    -4.364000000    -3.237000000
H    -3.722000000    -3.066000000    -3.019000000
O     2.738000000    -0.797000000    -1.186000000
H     3.087000000    -1.292000000    -0.445000000
H     1.984000000    -0.329000000    -0.828000000
O     0.474000000    -6.482000000     0.143000000
H    -0.438000000    -6.567000000    -0.135000000
H     0.741000000    -5.618000000    -0.170000000
O     3.653000000    -2.077000000     0.964000000
H     4.470000000    -2.548000000     1.129000000
H     3.224000000    -2.036000000     1.819000000
O     4.262000000     2.786000000     0.647000000
H     3.309000000     2.848000000     0.592000000
H     4.575000000     3.175000000    -0.169000000
O     1.311000000    -2.152000000     5.743000000
H     1.071000000    -1.258000000     5.499000000
H     2.063000000    -2.357000000     5.187000000
O     1.448000000    -7.744000000     2.631000000
H     0.762000000    -8.391000000     2.464000000
H     1.494000000    -7.231000000     1.824000000
O     3.158000000     1.092000000    -3.505000000
H     2.294000000     1.062000000    -3.095000000
H     3.405000000     0.173000000    -3.611000000
O     1.120000000     0.396000000     4.399000000
H     0.353000000     0.452000000     4.970000000
H     1.549000000     1.247000000     4.490000000
O     2.253000000    -4.974000000    -3.271000000
H     2.761000000    -4.769000000    -4.057000000
H     2.439000000    -4.252000000    -2.671000000
O    -0.306000000    -2.906000000    -3.462000000
H    -1.204000000    -3.108000000    -3.198000000
H     0.171000000    -3.727000000    -3.337000000
O     2.953000000     5.806000000     0.323000000
H     2.427000000     5.006000000     0.321000000
H     3.521000000     5.721000000    -0.443000000
O    -1.690000000     4.127000000     4.434000000
H    -1.663000000     3.701000000     5.291000000
H    -0.957000000     3.744000000     3.953000000
O     5.720000000     5.166000000     1.509000000
H     5.342000000     6.045000000     1.507000000
H     5.242000000     4.700000000     2.195000000
O    -4.504000000     1.048000000    -2.281000000
H    -5.169000000     1.033000000    -2.969000000
H    -4.978000000     0.815000000    -1.483000000
O    -6.337000000    -5.203000000    -0.430000000
H    -5.873000000    -6.037000000    -0.355000000
H    -5.643000000    -4.551000000    -0.530000000
O    -2.259000000    -0.073000000     2.755000000
H    -3.179000000    -0.068000000     2.492000000
H    -1.788000000     0.248000000     1.986000000
O    -3.409000000     6.417000000    -0.136000000
H    -2.791000000     6.635000000     0.562000000
H    -3.377000000     5.462000000    -0.194000000
O    -1.102000000     6.103000000    -3.540000000
H    -1.247000000     5.267000000    -3.984000000
H    -1.081000000     5.879000000    -2.609000000
O    -4.315000000    -2.259000000     2.213000000
H    -3.665000000    -2.878000000     2.547000000
H    -4.408000000    -2.485000000     1.288000000
O    -2.898000000    -5.519000000     1.554000000
H    -2.402000000    -5.938000000     0.851000000
H    -2.371000000    -5.666000000     2.340000000
O    -2.282000000    -6.648000000    -0.908000000
H    -3.176000000    -6.941000000    -0.736000000
H    -2.062000000    -7.033000000    -1.757000000
O    -0.219000000     9.097000000    -0.982000000
H    -1.099000000     9.084000000    -1.359000000
H     0.004000000     8.175000000    -0.862000000
O    -0.608000000    -3.201000000     3.120000000
H    -0.952000000    -3.177000000     4.013000000
H    -0.669000000    -2.295000000     2.816000000
O    -2.402000000     0.396000000    -4.038000000
H    -2.729000000    -0.382000000    -4.490000000
H    -3.177000000     0.776000000    -3.625000000
O     0.480000000     3.859000000     2.804000000
H     0.852000000     3.831000000     1.922000000
H     1.239000000     3.934000000     3.382000000
O     2.172000000     6.352000000     2.863000000
H     2.810000000     6.256000000     2.157000000
H     1.518000000     6.958000000     2.515000000
O     0.215000000    -0.072000000    -4.566000000
H     0.321000000    -1.010000000    -4.410000000
H    -0.720000000     0.088000000    -4.440000000
O     1.509000000    -3.507000000    -0.744000000
H     1.380000000    -2.706000000    -1.253000000
H     2.093000000    -3.246000000    -0.032000000
O     2.527000000     8.274000000    -0.221000000
H     2.886000000     7.527000000     0.259000000
H     2.286000000     7.917000000    -1.076000000
O    -2.606000000     3.855000000    -1.282000000
H    -1.652000000     3.779000000    -1.282000000
H    -2.918000000     2.953000000    -1.359000000
O    -1.206000000     3.664000000    -5.076000000
H    -1.180000000     2.711000000    -4.987000000
H    -1.490000000     3.813000000    -5.978000000
O    -1.287000000    -0.472000000     5.387000000
H    -1.540000000    -0.095000000     4.545000000
H    -1.982000000    -1.099000000     5.588000000
O     5.342000000     0.056000000    -0.266000000
H     4.490000000    -0.262000000     0.034000000
H     5.134000000     0.689000000    -0.952000000
O    -0.109000000    -2.589000000    -6.278000000
H    -0.248000000    -2.852000000    -5.368000000
H     0.569000000    -3.184000000    -6.598000000
O     2.458000000     2.707000000     4.734000000
H     2.439000000     2.966000000     5.656000000
H     3.329000000     2.964000000     4.431000000
O     1.731000000     7.674000000    -2.768000000
H     1.190000000     7.723000000    -3.556000000
H     1.432000000     6.882000000    -2.321000000
O     1.149000000     4.093000000    -3.788000000
H     0.495000000     3.801000000    -4.423000000
H     0.759000000     3.896000000    -2.936000000
O    -5.637000000    -0.177000000    -0.126000000
H    -6.404000000    -0.171000000     0.446000000
H    -5.062000000    -0.842000000     0.252000000
O     1.760000000     6.236000000    -5.410000000
H     1.465000000     5.657000000    -4.707000000
H     2.510000000     5.781000000    -5.795000000
O    -3.967000000    -3.483000000    -0.141000000
H    -3.500000000    -4.174000000     0.329000000
H    -3.624000000    -3.526000000    -1.033000000
