158
-3069.43412
C    -0.482000000     0.856000000    -1.092000000
H    -0.919000000     1.419000000    -1.913000000
C    -0.625000000    -0.524000000    -1.108000000
H    -1.126000000    -1.029000000    -1.930000000
C    -0.181000000    -1.237000000    -0.008000000
H    -0.370000000    -2.337000000     0.071000000
C     0.522000000    -0.589000000     1.013000000
H     0.964000000    -1.184000000     1.808000000
C     0.687000000     0.837000000     0.982000000
H     1.290000000     1.386000000     1.700000000
C     0.250000000     1.652000000    -0.098000000
C     0.329000000     3.184000000    -0.069000000
O    -0.157000000     3.797000000    -1.008000000
O     0.833000000     3.749000000     0.914000000
O     0.218000000    -6.827000000     2.777000000
H    -0.328000000    -7.609000000     2.690000000
H    -0.244000000    -6.156000000     2.275000000
O    -2.552000000    -5.922000000     1.327000000
H    -3.433000000    -6.296000000     1.358000000
H    -2.341000000    -5.885000000     0.394000000
O     3.716000000     0.564000000     2.612000000
H     3.397000000    -0.265000000     2.969000000
H     3.741000000     0.423000000     1.665000000
O    -0.490000000    -3.158000000    -3.567000000
H    -0.111000000    -2.340000000    -3.887000000
H     0.190000000    -3.813000000    -3.721000000
O     0.635000000    -5.421000000    -4.327000000
H     0.045000000    -5.861000000    -4.938000000
H     0.839000000    -6.087000000    -3.670000000
O     0.048000000    -1.619000000     4.614000000
H    -0.291000000    -2.215000000     3.946000000
H     0.881000000    -1.310000000     4.259000000
O     2.765000000     2.488000000     4.621000000
H     2.247000000     3.211000000     4.267000000
H     3.160000000     2.077000000     3.852000000
O     4.359000000     3.301000000    -2.913000000
H     4.047000000     3.602000000    -2.060000000
H     5.302000000     3.462000000    -2.895000000
O    -4.254000000    -3.000000000    -3.641000000
H    -5.182000000    -2.970000000    -3.408000000
H    -3.998000000    -2.081000000    -3.720000000
O     1.681000000     4.515000000    -4.273000000
H     1.023000000     4.815000000    -3.646000000
H     2.490000000     4.944000000    -3.995000000
O     2.670000000    -4.116000000     1.848000000
H     1.806000000    -4.492000000     2.017000000
H     2.803000000    -4.235000000     0.907000000
O    -0.599000000     6.209000000     2.362000000
H    -0.966000000     5.831000000     1.563000000
H    -0.158000000     7.006000000     2.068000000
O     1.710000000     1.405000000    -4.167000000
H     0.817000000     1.215000000    -4.454000000
H     1.830000000     2.336000000    -4.357000000
O    -2.165000000     0.382000000     4.936000000
H    -2.539000000    -0.491000000     5.053000000
H    -1.241000000     0.223000000     4.743000000
O     0.167000000    -4.823000000     0.318000000
H     0.640000000    -5.598000000     0.017000000
H    -0.553000000    -4.724000000    -0.305000000
O     4.780000000    -0.398000000     0.365000000
H     5.235000000    -1.112000000    -0.082000000
H     5.127000000     0.397000000    -0.040000000
O     1.690000000     6.493000000     0.636000000
H     1.756000000     5.579000000     0.913000000
H     1.141000000     6.468000000    -0.147000000
O     4.236000000     4.750000000     2.574000000
H     4.547000000     5.586000000     2.227000000
H     3.328000000     4.919000000     2.826000000
O     0.480000000     1.430000000     5.961000000
H     1.266000000     1.237000000     5.451000000
H     0.042000000     2.127000000     5.473000000
O    -0.843000000    -3.605000000     2.871000000
H    -1.398000000    -4.339000000     3.133000000
H    -0.867000000    -3.616000000     1.914000000
O     0.142000000    -4.598000000     5.439000000
H    -0.576000000    -4.510000000     6.066000000
H    -0.200000000    -4.223000000     4.628000000
O    -0.372000000     2.664000000     3.410000000
H     0.087000000     2.871000000     2.596000000
H    -0.907000000     1.900000000     3.195000000
O     3.081000000    -1.948000000    -1.655000000
H     2.270000000    -1.823000000    -1.162000000
H     3.116000000    -1.202000000    -2.253000000
O     3.820000000     3.901000000    -0.359000000
H     2.946000000     3.519000000    -0.278000000
H     4.321000000     3.506000000     0.355000000
O     2.816000000    -1.866000000     3.367000000
H     2.786000000    -2.609000000     2.765000000
H     2.917000000    -2.262000000     4.232000000
O    -3.779000000     1.109000000    -1.315000000
H    -3.054000000     1.427000000    -1.852000000
H    -4.077000000     1.881000000    -0.833000000
O    -4.280000000    -0.239000000    -3.688000000
H    -5.189000000    -0.274000000    -3.986000000
H    -4.322000000     0.207000000    -2.843000000
O    -4.613000000    -3.757000000     0.553000000
H    -3.923000000    -3.505000000     1.167000000
H    -4.705000000    -4.702000000     0.670000000
O    -2.149000000    -4.584000000    -1.838000000
H    -3.014000000    -4.184000000    -1.918000000
H    -1.629000000    -4.170000000    -2.527000000
O    -3.033000000    -0.682000000     1.337000000
H    -2.171000000    -0.969000000     1.035000000
H    -3.522000000    -0.506000000     0.534000000
O    -2.102000000     4.321000000     4.434000000
H    -2.132000000     4.986000000     3.746000000
H    -1.434000000     3.702000000     4.140000000
O     1.431000000     7.696000000    -3.451000000
H     1.481000000     7.216000000    -4.278000000
H     0.879000000     7.151000000    -2.890000000
O    -2.441000000     5.914000000     0.435000000
H    -2.786000000     6.083000000    -0.442000000
H    -2.551000000     4.971000000     0.558000000
O    -2.304000000     1.423000000    -4.624000000
H    -2.159000000     2.032000000    -3.900000000
H    -3.052000000     0.894000000    -4.346000000
O     3.858000000    -4.590000000    -1.198000000
H     4.767000000    -4.601000000    -1.497000000
H     3.565000000    -3.692000000    -1.355000000
O    -0.408000000    -0.593000000    -5.036000000
H    -0.103000000    -0.494000000    -5.938000000
H    -1.313000000    -0.282000000    -5.054000000
O    -2.469000000     3.203000000    -2.464000000
H    -2.965000000     4.022000000    -2.477000000
H    -1.757000000     3.363000000    -1.846000000
O    -2.117000000     3.578000000    -6.344000000
H    -1.294000000     3.245000000    -6.702000000
H    -2.376000000     2.926000000    -5.694000000
O    -2.973000000     1.605000000     2.653000000
H    -2.935000000     1.220000000     3.529000000
H    -3.015000000     0.852000000     2.063000000
O     3.924000000     0.393000000    -3.008000000
H     4.331000000     1.243000000    -2.841000000
H     3.018000000     0.602000000    -3.237000000
O    -2.506000000    -3.282000000    -5.856000000
H    -1.662000000    -3.318000000    -5.405000000
H    -3.155000000    -3.347000000    -5.156000000
O    -3.946000000     3.352000000     0.722000000
H    -3.568000000     2.932000000     1.494000000
H    -4.863000000     3.500000000     0.954000000
O    -2.452000000    -7.032000000    -2.652000000
H    -2.900000000    -7.089000000    -3.496000000
H    -2.511000000    -6.108000000    -2.411000000
O     1.622000000    -6.991000000    -1.154000000
H     2.278000000    -6.305000000    -1.273000000
H     2.099000000    -7.709000000    -0.736000000
O    -0.016000000     6.221000000    -1.668000000
H    -0.910000000     6.270000000    -2.006000000
H     0.064000000     5.328000000    -1.331000000
O     1.662000000     4.601000000     3.326000000
H     1.540000000     4.219000000     2.457000000
H     0.883000000     5.139000000     3.464000000
O    -2.733000000     6.319000000    -2.367000000
H    -3.050000000     6.121000000    -3.248000000
H    -3.204000000     7.113000000    -2.115000000
O    -5.619000000    -1.759000000    -1.042000000
H    -5.413000000    -2.639000000    -0.726000000
H    -6.270000000    -1.898000000    -1.731000000
