158
-3024.77565
C    -0.469000000     1.448000000     0.191000000
H    -0.808000000     2.475000000     0.080000000
C    -1.007000000     0.471000000    -0.679000000
H    -1.780000000     0.564000000    -1.437000000
C    -0.550000000    -0.881000000    -0.671000000
H    -0.814000000    -1.645000000    -1.364000000
C     0.446000000    -1.189000000     0.195000000
H     0.838000000    -2.201000000     0.124000000
C     1.024000000    -0.279000000     1.047000000
H     1.884000000    -0.641000000     1.605000000
C     0.653000000     1.042000000     0.997000000
C     1.279000000     1.946000000     1.994000000
O     0.714000000     3.019000000     2.177000000
O     2.384000000     1.749000000     2.455000000
O     4.695000000     3.710000000     5.363000000
H     5.516000000     3.963000000     4.942000000
H     4.508000000     2.837000000     5.019000000
O    -1.345000000    -5.883000000    -3.269000000
H    -1.535000000    -6.812000000    -3.141000000
H    -2.195000000    -5.452000000    -3.188000000
O    -3.308000000     2.927000000    -1.316000000
H    -3.810000000     3.716000000    -1.112000000
H    -2.532000000     3.249000000    -1.774000000
O    -1.841000000    -5.394000000     1.542000000
H    -2.191000000    -4.507000000     1.454000000
H    -1.081000000    -5.296000000     2.116000000
O     3.148000000    -5.611000000    -1.057000000
H     4.047000000    -5.808000000    -1.318000000
H     2.644000000    -6.375000000    -1.338000000
O     1.164000000    -1.360000000    -5.792000000
H     1.557000000    -1.994000000    -5.192000000
H     0.222000000    -1.440000000    -5.641000000
O    -2.284000000    -0.650000000     1.716000000
H    -2.142000000     0.220000000     2.090000000
H    -1.549000000    -0.775000000     1.116000000
O    -1.792000000     4.365000000     1.432000000
H    -1.025000000     3.900000000     1.766000000
H    -2.504000000     3.728000000     1.492000000
O     1.027000000     4.884000000     0.363000000
H     1.657000000     5.490000000     0.752000000
H     0.946000000     4.178000000     1.004000000
O    -2.630000000     2.012000000     2.949000000
H    -2.570000000     2.088000000     3.902000000
H    -3.377000000     2.561000000     2.712000000
O     4.190000000    -3.045000000    -0.515000000
H     4.323000000    -2.709000000    -1.401000000
H     3.629000000    -3.812000000    -0.631000000
O    -1.843000000     4.196000000     5.024000000
H    -1.676000000     5.026000000     4.577000000
H    -0.982000000     3.784000000     5.091000000
O     0.534000000     5.535000000    -2.076000000
H     0.682000000     5.291000000    -1.162000000
H    -0.202000000     4.990000000    -2.353000000
O     3.507000000    -0.117000000    -4.297000000
H     2.705000000    -0.236000000    -4.806000000
H     3.248000000     0.455000000    -3.574000000
O    -5.320000000     1.239000000    -2.232000000
H    -4.939000000     0.408000000    -2.515000000
H    -4.578000000     1.738000000    -1.890000000
O     6.034000000    -0.634000000     5.382000000
H     6.806000000    -0.356000000     5.875000000
H     5.600000000     0.183000000     5.136000000
O     0.136000000    -3.541000000    -3.547000000
H    -0.015000000    -4.287000000    -2.967000000
H     0.928000000    -3.771000000    -4.032000000
O    -0.309000000    -3.317000000     3.496000000
H    -1.109000000    -2.992000000     3.908000000
H     0.324000000    -2.607000000     3.607000000
O    -5.141000000     0.284000000     2.097000000
H    -5.534000000    -0.572000000     2.273000000
H    -4.230000000     0.089000000     1.878000000
O     1.255000000     1.284000000    -6.781000000
H     2.171000000     1.556000000    -6.742000000
H     1.226000000     0.467000000    -6.284000000
O     3.379000000     5.733000000     3.847000000
H     4.150000000     6.271000000     4.026000000
H     3.732000000     4.864000000     3.657000000
O    -3.902000000    -1.301000000    -2.234000000
H    -3.875000000    -1.867000000    -1.463000000
H    -4.208000000    -1.872000000    -2.940000000
O    -3.889000000    -4.896000000    -2.968000000
H    -4.462000000    -4.882000000    -2.201000000
H    -4.132000000    -4.114000000    -3.462000000
O     2.592000000    -5.874000000     2.341000000
H     1.659000000    -6.036000000     2.483000000
H     2.667000000    -4.921000000     2.303000000
O     0.777000000     6.843000000     4.626000000
H     1.628000000     6.668000000     4.224000000
H     0.142000000     6.462000000     4.019000000
O    -1.388000000     6.605000000     3.018000000
H    -2.074000000     7.224000000     2.770000000
H    -1.521000000     5.854000000     2.439000000
O    -0.665000000     1.665000000     6.511000000
H    -0.089000000     1.315000000     7.190000000
H    -0.070000000     2.025000000     5.853000000
O     2.787000000     3.026000000    -0.967000000
H     2.508000000     3.904000000    -0.706000000
H     3.705000000     3.131000000    -1.218000000
O     4.543000000     3.412000000     2.429000000
H     3.679000000     3.017000000     2.546000000
H     4.869000000     3.037000000     1.610000000
O     2.666000000    -3.308000000    -4.470000000
H     3.219000000    -3.404000000    -5.245000000
H     3.271000000    -3.054000000    -3.773000000
O    -5.007000000    -5.012000000    -0.593000000
H    -4.221000000    -4.841000000    -0.075000000
H    -5.398000000    -5.785000000    -0.187000000
O    -1.470000000    -1.329000000    -4.261000000
H    -2.166000000    -1.131000000    -3.634000000
H    -1.118000000    -2.170000000    -3.970000000
O     4.264000000     0.925000000     0.683000000
H     3.741000000     1.033000000    -0.111000000
H     3.691000000     1.220000000     1.390000000
O    -3.475000000    -3.131000000     1.048000000
H    -2.919000000    -2.501000000     1.506000000
H    -4.249000000    -3.216000000     1.606000000
O    -1.840000000     0.907000000    -5.934000000
H    -1.158000000     1.563000000    -5.788000000
H    -1.783000000     0.329000000    -5.173000000
O     1.520000000     2.259000000    -3.614000000
H     1.336000000     2.215000000    -2.676000000
H     0.797000000     2.771000000    -3.976000000
O     0.108000000    -5.704000000    -5.845000000
H     0.147000000    -5.588000000    -4.896000000
H    -0.727000000    -6.146000000    -5.998000000
O    -2.399000000    -2.306000000    -6.634000000
H    -2.289000000    -2.012000000    -5.729000000
H    -2.061000000    -1.585000000    -7.163000000
O     2.517000000    -1.181000000     6.133000000
H     1.935000000    -1.117000000     6.890000000
H     3.305000000    -1.606000000     6.472000000
O     3.730000000     0.632000000     4.395000000
H     3.109000000     0.130000000     4.923000000
H     3.208000000     0.967000000     3.666000000
O     5.699000000    -1.361000000     1.339000000
H     5.005000000    -1.988000000     1.139000000
H     5.297000000    -0.504000000     1.197000000
O     6.617000000     4.949000000     3.378000000
H     5.844000000     4.510000000     3.026000000
H     7.192000000     4.236000000     3.656000000
O    -6.201000000     2.408000000     0.513000000
H    -5.925000000     2.096000000    -0.349000000
H    -5.859000000     1.757000000     1.124000000
O    -1.647000000     4.573000000    -3.340000000
H    -2.420000000     5.084000000    -3.583000000
H    -1.289000000     4.271000000    -4.175000000
O    -4.650000000    -2.727000000    -4.468000000
H    -5.579000000    -2.734000000    -4.698000000
H    -4.200000000    -2.551000000    -5.294000000
O     6.016000000    -2.847000000     3.641000000
H     5.958000000    -2.454000000     2.770000000
H     6.038000000    -2.100000000     4.239000000
O     3.246000000    -3.243000000     4.329000000
H     2.740000000    -3.116000000     5.131000000
H     3.956000000    -2.603000000     4.391000000
O     1.144000000     3.677000000     4.751000000
H     1.960000000     4.176000000     4.722000000
H     1.041000000     3.333000000     3.864000000
