158
-3019.79129
C    -0.643000000     1.280000000     0.368000000
H    -1.192000000     2.182000000     0.624000000
C    -1.007000000     0.456000000    -0.721000000
H    -1.952000000     0.698000000    -1.201000000
C    -0.320000000    -0.708000000    -0.958000000
H    -0.800000000    -1.374000000    -1.695000000
C     0.815000000    -1.037000000    -0.189000000
H     1.272000000    -2.004000000    -0.384000000
C     1.200000000    -0.207000000     0.864000000
H     2.079000000    -0.452000000     1.455000000
C     0.488000000     0.956000000     1.154000000
C     0.898000000     1.760000000     2.287000000
O     0.271000000     2.776000000     2.680000000
O     1.932000000     1.413000000     2.908000000
O     1.913000000    -1.090000000    -4.966000000
H     2.465000000    -0.385000000    -5.304000000
H     1.227000000    -1.195000000    -5.625000000
O    -1.968000000     3.215000000    -3.204000000
H    -1.054000000     3.170000000    -3.486000000
H    -1.920000000     3.331000000    -2.256000000
O     0.205000000    -4.378000000     1.259000000
H     1.124000000    -4.239000000     1.488000000
H    -0.099000000    -5.040000000     1.880000000
O     2.057000000     3.157000000    -2.503000000
H     1.519000000     3.109000000    -3.294000000
H     1.436000000     3.362000000    -1.804000000
O     0.445000000     3.051000000    -4.693000000
H    -0.042000000     2.353000000    -5.131000000
H     0.908000000     3.500000000    -5.400000000
O    -0.019000000     5.370000000     1.861000000
H     0.232000000     5.380000000     0.937000000
H     0.229000000     4.498000000     2.168000000
O     3.220000000    -2.778000000     4.261000000
H     3.325000000    -3.058000000     5.171000000
H     2.569000000    -2.077000000     4.300000000
O     3.216000000    -2.266000000    -2.890000000
H     2.715000000    -2.133000000    -3.694000000
H     3.512000000    -1.389000000    -2.644000000
O    -1.191000000    -2.254000000     2.850000000
H    -0.532000000    -2.412000000     2.174000000
H    -0.716000000    -1.801000000     3.547000000
O    -2.791000000     4.243000000     2.974000000
H    -1.931000000     4.051000000     2.601000000
H    -3.406000000     3.771000000     2.413000000
O     2.139000000     4.096000000     4.032000000
H     2.950000000     3.693000000     4.343000000
H     1.730000000     3.423000000     3.488000000
O     0.138000000     3.214000000     7.873000000
H    -0.489000000     2.507000000     8.027000000
H     0.576000000     2.972000000     7.057000000
O    -2.896000000    -2.622000000    -6.792000000
H    -2.310000000    -2.025000000    -6.327000000
H    -2.947000000    -3.394000000    -6.229000000
O    -3.034000000    -4.742000000    -5.295000000
H    -3.489000000    -5.192000000    -4.583000000
H    -3.175000000    -5.300000000    -6.060000000
O    -2.113000000     7.544000000     2.933000000
H    -1.363000000     6.972000000     2.773000000
H    -2.436000000     7.766000000     2.060000000
O    -1.806000000     4.406000000    -0.878000000
H    -2.490000000     5.055000000    -1.040000000
H    -1.203000000     4.838000000    -0.273000000
O     1.565000000     5.615000000    -0.652000000
H     1.832000000     6.261000000     0.002000000
H     1.241000000     6.136000000    -1.386000000
O    -4.634000000     1.823000000    -0.941000000
H    -4.172000000     2.479000000    -1.464000000
H    -4.553000000     1.014000000    -1.447000000
O    -5.694000000    -1.802000000     1.763000000
H    -5.473000000    -1.741000000     2.692000000
H    -4.852000000    -1.917000000     1.323000000
O     5.442000000     3.405000000     1.612000000
H     5.341000000     4.191000000     2.149000000
H     4.855000000     3.545000000     0.869000000
O    -4.571000000    -0.012000000    -2.943000000
H    -3.901000000    -0.687000000    -2.839000000
H    -5.391000000    -0.450000000    -2.713000000
O    -1.415000000    -3.952000000    -0.828000000
H    -1.751000000    -4.812000000    -1.078000000
H    -0.891000000    -4.117000000    -0.044000000
O     4.557000000    -3.658000000    -0.015000000
H     3.848000000    -3.688000000     0.628000000
H     4.116000000    -3.732000000    -0.861000000
O     0.871000000    -1.018000000     4.227000000
H     1.280000000    -0.213000000     3.909000000
H     0.817000000    -0.902000000     5.175000000
O    -4.982000000     2.569000000     1.652000000
H    -5.496000000     1.838000000     1.997000000
H    -5.073000000     2.498000000     0.701000000
O     3.938000000     3.237000000     6.351000000
H     3.279000000     3.895000000     6.573000000
H     3.849000000     2.570000000     7.031000000
O    -3.333000000    -2.696000000    -2.792000000
H    -2.749000000    -3.383000000    -2.471000000
H    -3.843000000    -3.119000000    -3.483000000
O    -0.843000000     0.768000000    -5.877000000
H    -1.363000000     1.268000000    -6.506000000
H    -0.407000000     0.099000000    -6.404000000
O    -1.442000000    -6.586000000    -1.610000000
H    -1.896000000    -7.134000000    -0.970000000
H    -1.679000000    -6.961000000    -2.458000000
O    -3.184000000     3.585000000     5.642000000
H    -2.858000000     2.688000000     5.563000000
H    -2.896000000     4.015000000     4.837000000
O    -4.265000000    -5.168000000     0.040000000
H    -4.042000000    -4.915000000     0.936000000
H    -4.046000000    -4.400000000    -0.487000000
O     0.922000000    -0.551000000     7.172000000
H     0.934000000     0.302000000     6.738000000
H     1.562000000    -0.469000000     7.879000000
O     4.346000000     0.658000000     2.382000000
H     3.413000000     0.828000000     2.513000000
H     4.646000000     1.381000000     1.832000000
O    -4.354000000     2.682000000    -4.172000000
H    -3.461000000     3.008000000    -4.053000000
H    -4.364000000     1.840000000    -3.716000000
O     0.879000000     1.755000000     5.728000000
H     1.698000000     2.166000000     5.453000000
H     0.307000000     1.827000000     4.964000000
O     2.720000000    -4.237000000     1.902000000
H     2.817000000    -3.646000000     2.649000000
H     3.462000000    -4.838000000     1.974000000
O    -1.258000000    -1.771000000    -4.284000000
H    -1.938000000    -1.983000000    -3.644000000
H    -0.947000000    -0.904000000    -4.024000000
O     5.478000000    -1.531000000     3.059000000
H     5.175000000    -0.674000000     2.759000000
H     4.694000000    -1.953000000     3.410000000
O    -3.228000000    -2.142000000     0.529000000
H    -2.855000000    -1.698000000     1.291000000
H    -2.470000000    -2.370000000    -0.009000000
O     3.825000000     3.771000000    -0.472000000
H     3.424000000     4.635000000    -0.569000000
H     3.396000000     3.233000000    -1.137000000
O     0.347000000     5.453000000     5.571000000
H     0.837000000     5.182000000     4.795000000
H     0.947000000     5.293000000     6.300000000
O     1.469000000    -6.601000000    -2.120000000
H     0.538000000    -6.530000000    -1.909000000
H     1.907000000    -6.607000000    -1.269000000
O    -0.359000000    -4.074000000    -5.120000000
H    -0.580000000    -3.242000000    -4.701000000
H    -1.193000000    -4.539000000    -5.185000000
O     3.758000000    -4.867000000    -2.589000000
H     3.342000000    -4.033000000    -2.809000000
H     3.028000000    -5.474000000    -2.470000000
O     5.799000000    -0.288000000     0.243000000
H     5.004000000    -0.097000000     0.741000000
H     6.270000000    -0.925000000     0.779000000
O     5.239000000     1.271000000     5.024000000
H     4.795000000     2.049000000     5.361000000
H     4.767000000     1.055000000     4.220000000
O    -2.723000000     0.161000000     2.572000000
H    -1.925000000    -0.360000000     2.663000000
H    -2.696000000     0.483000000     1.671000000
O    -2.545000000     0.965000000     5.211000000
H    -2.867000000     0.799000000     4.325000000
H    -3.145000000     0.483000000     5.779000000
