158
-3054.83392
C    -0.445000000     1.360000000    -0.338000000
H    -0.881000000     2.309000000    -0.639000000
C    -0.619000000     0.283000000    -1.159000000
H    -1.148000000     0.448000000    -2.094000000
C    -0.229000000    -0.950000000    -0.726000000
H    -0.417000000    -1.898000000    -1.283000000
C     0.381000000    -1.068000000     0.526000000
H     0.632000000    -2.069000000     0.868000000
C     0.686000000     0.024000000     1.286000000
H     1.174000000    -0.041000000     2.255000000
C     0.248000000     1.291000000     0.878000000
C     0.510000000     2.481000000     1.737000000
O     0.061000000     3.590000000     1.429000000
O     1.010000000     2.320000000     2.866000000
O     4.295000000     2.505000000     5.601000000
H     3.614000000     1.871000000     5.381000000
H     4.979000000     2.359000000     4.948000000
O    -3.131000000    -5.266000000    -4.681000000
H    -3.260000000    -6.196000000    -4.496000000
H    -4.013000000    -4.895000000    -4.673000000
O    -2.325000000    -3.811000000    -0.849000000
H    -2.919000000    -4.475000000    -0.499000000
H    -1.803000000    -3.536000000    -0.095000000
O    -4.943000000     5.615000000     0.026000000
H    -5.105000000     6.066000000     0.855000000
H    -4.150000000     5.103000000     0.182000000
O     0.462000000    -5.157000000    -1.993000000
H     0.241000000    -5.154000000    -1.061000000
H    -0.355000000    -4.924000000    -2.433000000
O     1.554000000     0.024000000     6.705000000
H     2.099000000     0.002000000     5.918000000
H     0.780000000    -0.488000000     6.474000000
O     0.251000000    -1.730000000    -4.540000000
H     0.786000000    -1.169000000    -3.979000000
H    -0.264000000    -2.258000000    -3.931000000
O    -2.918000000    -2.086000000     1.654000000
H    -3.754000000    -1.633000000     1.763000000
H    -2.270000000    -1.383000000     1.605000000
O     2.851000000    -6.642000000    -0.926000000
H     2.601000000    -5.763000000    -1.209000000
H     2.034000000    -7.039000000    -0.627000000
O    -2.550000000     4.281000000     0.525000000
H    -1.883000000     3.673000000     0.845000000
H    -2.252000000     4.524000000    -0.352000000
O     1.027000000     4.987000000    -0.852000000
H     1.314000000     5.730000000    -0.321000000
H     0.594000000     4.401000000    -0.230000000
O    -1.353000000     1.323000000     4.205000000
H    -0.497000000     1.288000000     3.779000000
H    -1.375000000     2.180000000     4.629000000
O     4.826000000     5.596000000    -0.462000000
H     5.511000000     5.287000000     0.131000000
H     4.134000000     5.914000000     0.118000000
O     2.642000000     0.137000000    -1.164000000
H     2.416000000     0.952000000    -1.612000000
H     1.810000000    -0.189000000    -0.822000000
O    -3.446000000     6.680000000     3.704000000
H    -2.595000000     6.363000000     3.401000000
H    -3.268000000     7.057000000     4.565000000
O    -1.900000000     4.606000000    -2.222000000
H    -0.998000000     4.726000000    -1.926000000
H    -1.837000000     3.967000000    -2.931000000
O     1.215000000    -0.648000000    -7.036000000
H     1.037000000    -1.543000000    -7.326000000
H     0.949000000    -0.637000000    -6.117000000
O    -3.985000000     2.573000000    -2.104000000
H    -3.341000000     2.325000000    -2.767000000
H    -4.323000000     3.417000000    -2.402000000
O     5.638000000    -0.523000000     4.666000000
H     6.388000000    -0.098000000     5.082000000
H     5.304000000     0.129000000     4.050000000
O    -1.598000000    -3.225000000    -3.319000000
H    -2.123000000    -3.804000000    -3.872000000
H    -1.911000000    -3.394000000    -2.431000000
O    -2.203000000    -3.881000000     3.980000000
H    -3.009000000    -3.380000000     4.108000000
H    -1.785000000    -3.472000000     3.222000000
O     1.144000000    -6.104000000    -4.753000000
H     1.371000000    -5.179000000    -4.664000000
H     0.778000000    -6.344000000    -3.901000000
O     1.674000000     6.604000000     3.640000000
H     2.482000000     7.051000000     3.891000000
H     1.680000000     5.794000000     4.149000000
O    -4.289000000    -0.444000000    -3.529000000
H    -4.638000000    -0.093000000    -2.709000000
H    -5.005000000    -0.345000000    -4.156000000
O    -0.146000000    -4.929000000     0.915000000
H    -0.230000000    -5.521000000     1.663000000
H     0.658000000    -4.439000000     1.088000000
O    -1.297000000     6.970000000     0.580000000
H    -2.013000000     7.203000000     1.171000000
H    -1.202000000     6.023000000     0.681000000
O    -1.481000000     3.669000000     5.766000000
H    -1.177000000     4.254000000     6.459000000
H    -1.145000000     4.058000000     4.959000000
O     2.100000000     2.611000000    -2.253000000
H     1.492000000     3.336000000    -2.110000000
H     2.849000000     3.010000000    -2.696000000
O    -0.574000000    -1.718000000     5.034000000
H    -1.002000000    -2.551000000     5.231000000
H    -1.221000000    -1.229000000     4.526000000
O     1.940000000     4.115000000     4.715000000
H     2.604000000     3.592000000     5.163000000
H     1.579000000     3.526000000     4.052000000
O     0.467000000     8.833000000    -0.509000000
H     0.521000000     9.503000000     0.173000000
H     0.019000000     8.099000000    -0.088000000
O    -2.070000000     0.276000000    -4.454000000
H    -2.855000000    -0.172000000    -4.138000000
H    -1.384000000    -0.390000000    -4.422000000
O     5.361000000     2.798000000     0.057000000
H     5.295000000     3.346000000     0.839000000
H     4.505000000     2.879000000    -0.365000000
O    -4.899000000    -2.514000000    -1.171000000
H    -3.989000000    -2.352000000    -1.421000000
H    -4.840000000    -3.135000000    -0.445000000
O    -1.615000000     1.630000000     7.705000000
H    -0.983000000     1.903000000     7.040000000
H    -2.348000000     2.237000000     7.602000000
O    -3.106000000     0.304000000    -7.125000000
H    -2.751000000     0.492000000    -6.256000000
H    -3.541000000    -0.543000000    -7.028000000
O     1.584000000     1.061000000    -4.392000000
H     1.827000000     1.655000000    -3.682000000
H     2.391000000     0.947000000    -4.895000000
O     2.724000000     6.588000000     1.020000000
H     2.381000000     6.456000000     1.903000000
H     2.433000000     7.468000000     0.779000000
O     2.033000000    -3.634000000    -5.474000000
H     2.857000000    -3.151000000    -5.536000000
H     1.403000000    -2.993000000    -5.145000000
O     2.342000000    -2.096000000     4.141000000
H     2.586000000    -2.022000000     5.064000000
H     1.398000000    -2.254000000     4.155000000
O     2.916000000     0.690000000     4.276000000
H     3.027000000    -0.054000000     3.684000000
H     2.404000000     1.323000000     3.772000000
O     5.100000000    -0.809000000     0.419000000
H     4.318000000    -0.517000000    -0.050000000
H     5.762000000    -0.150000000     0.212000000
O    -1.788000000     3.054000000    -4.401000000
H    -1.654000000     2.107000000    -4.363000000
H    -1.472000000     3.306000000    -5.269000000
O    -5.007000000     1.308000000    -0.173000000
H    -4.559000000     1.759000000    -0.889000000
H    -5.240000000     2.006000000     0.440000000
O     5.107000000    -2.555000000     2.659000000
H     5.415000000    -2.010000000     1.935000000
H     4.892000000    -1.932000000     3.353000000
O     2.559000000    -3.729000000     1.784000000
H     2.459000000    -3.181000000     2.563000000
H     3.505000000    -3.835000000     1.685000000
O    -0.931000000     5.509000000     3.287000000
H    -0.054000000     5.890000000     3.323000000
H    -0.875000000     4.843000000     2.601000000
O    -0.574000000    -6.290000000     3.418000000
H    -0.100000000    -6.563000000     4.205000000
H    -1.012000000    -5.478000000     3.672000000
