158
-3014.79549
C     1.225000000     0.741000000    -0.381000000
H     2.066000000     1.400000000    -0.581000000
C     0.207000000     0.477000000    -1.264000000
H     0.105000000     0.919000000    -2.252000000
C    -0.829000000    -0.330000000    -0.826000000
H    -1.564000000    -0.577000000    -1.611000000
C    -0.890000000    -0.792000000     0.458000000
H    -1.830000000    -1.177000000     0.845000000
C     0.131000000    -0.568000000     1.318000000
H     0.073000000    -0.883000000     2.357000000
C     1.276000000     0.142000000     0.865000000
C     2.333000000     0.528000000     1.917000000
O     2.732000000     1.693000000     1.979000000
O     2.572000000    -0.232000000     2.810000000
O    -3.258000000    -0.102000000    -7.231000000
H    -3.637000000     0.415000000    -7.943000000
H    -3.842000000     0.051000000    -6.488000000
O     2.695000000     3.357000000    -3.332000000
H     3.417000000     2.752000000    -3.162000000
H     2.613000000     3.865000000    -2.525000000
O     1.490000000     3.882000000     1.035000000
H     1.886000000     3.237000000     1.620000000
H     1.702000000     4.727000000     1.430000000
O    -0.236000000    -3.824000000    -3.096000000
H    -0.739000000    -4.450000000    -2.574000000
H     0.571000000    -3.690000000    -2.598000000
O     3.922000000     1.132000000     7.431000000
H     3.809000000     1.962000000     6.968000000
H     3.561000000     0.475000000     6.834000000
O    -1.672000000    -1.219000000     6.573000000
H    -0.955000000    -1.853000000     6.577000000
H    -1.312000000    -0.453000000     6.126000000
O     2.551000000    -0.655000000    -3.447000000
H     3.184000000    -0.189000000    -2.901000000
H     2.541000000    -1.545000000    -3.095000000
O    -3.789000000    -5.813000000     1.360000000
H    -4.283000000    -5.403000000     2.070000000
H    -3.527000000    -5.084000000     0.799000000
O    -6.586000000     1.497000000    -0.384000000
H    -5.887000000     1.570000000     0.266000000
H    -6.913000000     0.604000000    -0.284000000
O     1.367000000    -2.673000000     3.872000000
H     1.545000000    -1.834000000     3.449000000
H     0.415000000    -2.762000000     3.836000000
O     3.964000000     3.370000000     5.809000000
H     4.385000000     3.251000000     4.958000000
H     3.492000000     4.199000000     5.729000000
O     5.028000000     1.982000000     0.122000000
H     4.931000000     2.901000000    -0.128000000
H     4.258000000     1.798000000     0.660000000
O     4.524000000     1.414000000    -2.455000000
H     5.117000000     0.747000000    -2.802000000
H     4.800000000     1.529000000    -1.546000000
O    -1.111000000     4.204000000    -1.063000000
H    -1.412000000     5.069000000    -1.343000000
H    -0.179000000     4.323000000    -0.880000000
O     1.683000000     5.031000000    -1.240000000
H     1.776000000     4.479000000    -0.464000000
H     1.155000000     5.773000000    -0.944000000
O    -2.061000000     1.215000000     4.189000000
H    -2.114000000     1.778000000     4.961000000
H    -1.856000000     1.812000000     3.470000000
O     2.610000000    -0.445000000     5.476000000
H     2.666000000    -0.261000000     4.539000000
H     2.393000000    -1.376000000     5.525000000
O    -4.783000000    -3.183000000     2.442000000
H    -5.701000000    -3.094000000     2.184000000
H    -4.487000000    -2.285000000     2.587000000
O     3.890000000    -3.441000000     1.328000000
H     4.115000000    -2.908000000     2.091000000
H     2.959000000    -3.272000000     1.184000000
O    -0.682000000    -0.749000000    -7.202000000
H    -0.390000000    -0.875000000    -6.299000000
H    -1.590000000    -0.456000000    -7.122000000
O     5.822000000    -2.186000000    -0.491000000
H     6.117000000    -2.827000000    -1.137000000
H     5.022000000    -2.566000000    -0.126000000
O     0.084000000    -1.505000000    -4.657000000
H     0.492000000    -0.873000000    -4.066000000
H    -0.040000000    -2.288000000    -4.121000000
O     1.236000000     1.587000000    -5.013000000
H     1.374000000     2.303000000    -4.392000000
H     1.805000000     0.885000000    -4.700000000
O     0.728000000     1.872000000     4.443000000
H     0.555000000     2.432000000     3.687000000
H     1.426000000     1.285000000     4.152000000
O     2.485000000    -3.163000000    -1.795000000
H     3.160000000    -3.840000000    -1.747000000
H     1.982000000    -3.269000000    -0.987000000
O    -4.593000000     1.221000000     1.245000000
H    -3.707000000     1.533000000     1.061000000
H    -4.464000000     0.428000000     1.766000000
O     4.737000000     3.212000000     3.182000000
H     5.292000000     2.432000000     3.173000000
H     3.961000000     2.960000000     2.683000000
O    -3.702000000    -2.832000000    -4.671000000
H    -2.887000000    -2.438000000    -4.360000000
H    -3.835000000    -3.589000000    -4.100000000
O    -2.738000000     3.001000000    -6.501000000
H    -3.665000000     2.811000000    -6.645000000
H    -2.705000000     3.386000000    -5.625000000
O     1.012000000     0.871000000     7.294000000
H     0.867000000     1.321000000     6.462000000
H     1.676000000     0.211000000     7.097000000
O     2.258000000     6.194000000     1.982000000
H     1.695000000     6.642000000     2.613000000
H     3.093000000     6.659000000     2.034000000
O    -0.729000000     3.430000000     2.598000000
H    -0.284000000     3.593000000     1.766000000
H    -1.657000000     3.564000000     2.403000000
O    -2.418000000     4.103000000    -4.303000000
H    -3.026000000     4.720000000    -3.896000000
H    -1.708000000     4.013000000    -3.667000000
O     4.728000000    -1.576000000     3.339000000
H     3.902000000    -1.173000000     3.071000000
H     5.308000000    -0.837000000     3.520000000
O     0.896000000    -3.480000000     0.567000000
H     0.376000000    -4.264000000     0.742000000
H     0.290000000    -2.753000000     0.710000000
O     0.082000000     4.454000000     5.589000000
H     0.118000000     3.784000000     4.905000000
H     0.803000000     5.047000000     5.381000000
O    -4.924000000    -3.758000000    -1.127000000
H    -5.423000000    -4.086000000    -1.875000000
H    -5.564000000    -3.702000000    -0.418000000
O    -5.523000000     0.462000000    -5.632000000
H    -5.490000000     1.358000000    -5.969000000
H    -5.710000000     0.564000000    -4.699000000
O    -3.614000000    -0.772000000     3.250000000
H    -2.984000000    -0.176000000     3.655000000
H    -4.418000000    -0.651000000     3.756000000
O    -6.150000000    -2.061000000    -5.703000000
H    -6.089000000    -1.129000000    -5.913000000
H    -5.364000000    -2.243000000    -5.190000000
O     5.166000000    -4.421000000     4.075000000
H     5.074000000    -4.911000000     3.258000000
H     5.339000000    -3.522000000     3.797000000
O     6.959000000    -0.120000000     0.644000000
H     6.556000000    -0.882000000     0.228000000
H     6.271000000     0.547000000     0.639000000
O    -6.155000000     1.185000000    -3.172000000
H    -7.067000000     1.351000000    -3.411000000
H    -6.155000000     1.180000000    -2.215000000
O    -2.063000000    -5.259000000    -1.392000000
H    -2.636000000    -6.025000000    -1.382000000
H    -2.659000000    -4.513000000    -1.337000000
O    -1.418000000    -2.748000000     3.446000000
H    -1.922000000    -3.494000000     3.772000000
H    -2.051000000    -2.031000000     3.408000000
O    -3.570000000    -4.324000000     4.399000000
H    -4.053000000    -3.769000000     3.787000000
H    -4.092000000    -4.307000000     5.201000000
O     6.615000000     0.458000000     3.605000000
H     7.150000000    -0.283000000     3.890000000
H     7.250000000     1.114000000     3.316000000
O    -2.214000000     2.019000000     0.502000000
H    -2.026000000     2.693000000    -0.151000000
H    -1.390000000     1.542000000     0.598000000
