158
-3062.70424
C    -0.371000000     0.753000000     1.215000000
H    -0.803000000     1.366000000     2.002000000
C    -0.406000000     1.292000000    -0.108000000
H    -0.693000000     2.314000000    -0.338000000
C    -0.051000000     0.410000000    -1.122000000
H    -0.077000000     0.820000000    -2.177000000
C     0.367000000    -0.902000000    -0.908000000
H     0.631000000    -1.469000000    -1.797000000
C     0.300000000    -1.352000000     0.420000000
H     0.516000000    -2.398000000     0.621000000
C     0.009000000    -0.545000000     1.470000000
C    -0.001000000    -1.101000000     2.854000000
O     0.096000000    -0.281000000     3.753000000
O     0.007000000    -2.267000000     3.187000000
O     1.885000000     1.166000000    -5.070000000
H     1.546000000     0.280000000    -5.196000000
H     1.108000000     1.699000000    -4.901000000
O    -3.886000000     3.681000000    -2.697000000
H    -4.077000000     3.471000000    -1.783000000
H    -4.271000000     2.959000000    -3.194000000
O    -0.277000000     3.880000000     3.813000000
H    -0.383000000     4.227000000     4.699000000
H     0.567000000     3.429000000     3.832000000
O    -1.289000000    -4.177000000    -0.574000000
H    -1.727000000    -3.584000000     0.036000000
H    -1.999000000    -4.681000000    -0.970000000
O     3.762000000    -3.040000000    -0.119000000
H     4.184000000    -2.418000000    -0.712000000
H     3.508000000    -2.513000000     0.639000000
O    -0.406000000     6.749000000    -1.017000000
H    -0.377000000     6.079000000    -0.333000000
H    -0.585000000     7.563000000    -0.546000000
O     3.505000000     0.006000000     6.577000000
H     3.935000000     0.576000000     5.940000000
H     2.760000000     0.517000000     6.893000000
O    -5.345000000     1.253000000    -3.697000000
H    -5.174000000     1.238000000    -4.638000000
H    -4.743000000     0.603000000    -3.333000000
O    -2.909000000     3.759000000     2.845000000
H    -2.033000000     3.867000000     3.216000000
H    -3.411000000     3.329000000     3.538000000
O     1.831000000     2.218000000     3.681000000
H     1.202000000     1.519000000     3.505000000
H     2.560000000     2.039000000     3.087000000
O    -0.391000000    -0.840000000     7.707000000
H    -0.884000000    -1.430000000     7.137000000
H     0.195000000    -1.415000000     8.199000000
O    -1.746000000    -0.584000000    -4.781000000
H    -2.447000000     0.047000000    -4.944000000
H    -2.168000000    -1.291000000    -4.292000000
O    -2.425000000    -6.306000000     2.941000000
H    -1.718000000    -5.671000000     3.054000000
H    -2.312000000    -6.635000000     2.050000000
O     3.832000000     1.655000000     1.942000000
H     3.506000000     1.754000000     1.048000000
H     4.649000000     2.153000000     1.956000000
O     3.195000000    -1.270000000     2.082000000
H     2.747000000    -0.547000000     1.643000000
H     4.092000000    -0.958000000     2.203000000
O    -3.525000000    -0.110000000    -2.110000000
H    -2.602000000     0.078000000    -1.942000000
H    -3.890000000    -0.307000000    -1.247000000
O    -1.867000000     5.281000000    -2.928000000
H    -2.400000000     4.548000000    -2.622000000
H    -1.419000000     5.596000000    -2.142000000
O    -2.055000000    -1.743000000    -7.628000000
H    -1.486000000    -2.502000000    -7.756000000
H    -1.828000000    -1.418000000    -6.757000000
O     3.339000000     3.386000000    -5.064000000
H     2.899000000     2.546000000    -5.192000000
H     2.652000000     3.969000000    -4.741000000
O    -1.773000000    -1.700000000     5.162000000
H    -1.098000000    -1.683000000     4.484000000
H    -2.439000000    -1.086000000     4.853000000
O     1.404000000    -1.936000000     5.768000000
H     2.211000000    -1.555000000     5.421000000
H     0.706000000    -1.390000000     5.404000000
O     0.353000000    -6.576000000     4.836000000
H    -0.408000000    -6.067000000     4.558000000
H     0.012000000    -7.170000000     5.505000000
O    -5.005000000     2.554000000    -0.122000000
H    -4.550000000     1.804000000     0.260000000
H    -5.247000000     3.096000000     0.630000000
O    -2.802000000     2.999000000    -5.556000000
H    -3.517000000     2.452000000    -5.882000000
H    -3.233000000     3.657000000    -5.010000000
O     0.694000000    -4.541000000    -2.172000000
H    -0.052000000    -4.362000000    -1.599000000
H     0.917000000    -5.456000000    -1.996000000
O     0.026000000     3.014000000    -4.524000000
H     0.087000000     3.872000000    -4.103000000
H    -0.829000000     3.018000000    -4.953000000
O    -0.888000000     1.715000000     5.743000000
H    -0.545000000     0.989000000     5.220000000
H    -0.735000000     1.449000000     6.650000000
O    -2.778000000    -2.674000000     1.604000000
H    -2.106000000    -2.809000000     2.272000000
H    -3.558000000    -3.102000000     1.959000000
O     2.736000000    -4.094000000     3.086000000
H     2.371000000    -3.210000000     3.124000000
H     2.176000000    -4.557000000     2.463000000
O     1.671000000    -3.532000000    -4.717000000
H     1.331000000    -3.815000000    -3.868000000
H     1.896000000    -4.345000000    -5.169000000
O    -3.959000000    -0.664000000     0.351000000
H    -3.815000000    -1.608000000     0.411000000
H    -4.045000000    -0.376000000     1.260000000
O     1.008000000     5.685000000    -3.208000000
H     0.349000000     6.083000000    -2.639000000
H     0.863000000     6.092000000    -4.062000000
O     4.055000000     1.362000000    -3.029000000
H     3.600000000     0.984000000    -3.782000000
H     4.670000000     1.988000000    -3.412000000
O    -0.280000000     5.443000000     1.300000000
H     0.036000000     4.632000000     1.699000000
H     0.435000000     6.066000000     1.424000000
O    -1.332000000    -4.383000000     5.276000000
H    -1.678000000    -4.374000000     6.169000000
H    -1.311000000    -3.462000000     5.019000000
O     1.938000000    -4.577000000     6.047000000
H     1.341000000    -5.040000000     5.458000000
H     1.678000000    -3.659000000     5.979000000
O    -0.121000000    -4.772000000     2.239000000
H    -0.070000000    -4.579000000     1.303000000
H     0.004000000    -3.924000000     2.665000000
O     0.352000000    -7.223000000    -0.194000000
H     1.067000000    -6.658000000     0.096000000
H     0.588000000    -8.094000000     0.127000000
O     4.394000000    -2.830000000    -2.961000000
H     4.547000000    -1.950000000    -2.618000000
H     3.451000000    -2.862000000    -3.125000000
O    -3.553000000     2.421000000     4.992000000
H    -3.899000000     2.800000000     5.800000000
H    -2.736000000     1.998000000     5.256000000
O     3.242000000     4.822000000    -1.279000000
H     2.466000000     5.272000000    -1.613000000
H     2.973000000     3.907000000    -1.199000000
O     2.515000000     1.984000000    -0.710000000
H     2.915000000     1.727000000    -1.541000000
H     1.581000000     1.813000000    -0.830000000
O     1.663000000     2.067000000     6.684000000
H     1.625000000     2.195000000     5.737000000
H     1.565000000     2.947000000     7.049000000
O     2.295000000    -5.048000000     0.461000000
H     2.991000000    -5.668000000     0.677000000
H     2.733000000    -4.362000000    -0.043000000
O    -4.478000000     0.578000000     2.647000000
H    -3.820000000     1.254000000     2.809000000
H    -4.514000000     0.079000000     3.463000000
O     0.907000000    -1.169000000    -5.702000000
H     1.124000000    -2.023000000    -5.326000000
H     0.007000000    -1.005000000    -5.421000000
O    -2.771000000     5.256000000     0.395000000
H    -2.011000000     5.641000000     0.833000000
H    -3.244000000     4.801000000     1.091000000
O     4.952000000    -0.875000000    -1.223000000
H     4.756000000     0.060000000    -1.270000000
H     5.885000000    -0.915000000    -1.014000000
