158
-3033.71553
C    -0.199000000     1.429000000     0.288000000
H    -0.234000000     2.514000000     0.326000000
C    -0.770000000     0.743000000    -0.763000000
H    -1.338000000     1.278000000    -1.520000000
C    -0.526000000    -0.633000000    -0.893000000
H    -0.872000000    -1.294000000    -1.678000000
C     0.214000000    -1.286000000     0.097000000
H     0.311000000    -2.361000000    -0.030000000
C     0.702000000    -0.671000000     1.215000000
H     1.246000000    -1.198000000     1.995000000
C     0.559000000     0.786000000     1.239000000
C     1.278000000     1.605000000     2.294000000
O     1.490000000     2.804000000     2.131000000
O     1.575000000     1.089000000     3.372000000
O    -0.485000000     2.441000000    -4.846000000
H    -1.327000000     2.814000000    -4.585000000
H    -0.539000000     1.522000000    -4.585000000
O     4.705000000     4.318000000     5.439000000
H     4.098000000     4.326000000     4.699000000
H     4.175000000     4.595000000     6.186000000
O     2.422000000     2.236000000    -1.187000000
H     2.558000000     1.338000000    -0.883000000
H     2.339000000     2.751000000    -0.385000000
O    -4.231000000     2.282000000    -3.968000000
H    -4.641000000     1.497000000    -3.604000000
H    -3.755000000     2.666000000    -3.232000000
O     1.838000000     5.771000000    -0.306000000
H     1.534000000     5.604000000     0.586000000
H     1.830000000     6.725000000    -0.387000000
O     0.186000000    -4.729000000     2.260000000
H     0.477000000    -5.051000000     1.407000000
H    -0.689000000    -5.101000000     2.371000000
O     0.588000000    -0.443000000     7.686000000
H     0.994000000     0.323000000     8.091000000
H     0.107000000    -0.091000000     6.937000000
O     2.416000000    -1.969000000    -2.558000000
H     2.913000000    -2.660000000    -2.122000000
H     2.621000000    -1.176000000    -2.062000000
O    -3.492000000     4.495000000     0.192000000
H    -2.939000000     4.950000000     0.827000000
H    -4.291000000     4.286000000     0.676000000
O     5.581000000     0.370000000     1.636000000
H     6.368000000     0.622000000     2.118000000
H     5.036000000    -0.078000000     2.283000000
O     3.663000000    -0.216000000    -0.715000000
H     3.687000000    -0.962000000    -0.116000000
H     4.516000000     0.205000000    -0.608000000
O    -1.981000000    -3.349000000    -5.754000000
H    -2.116000000    -3.482000000    -4.816000000
H    -1.156000000    -3.798000000    -5.943000000
O    -0.515000000    -4.702000000    -2.589000000
H     0.060000000    -4.562000000    -1.836000000
H    -1.176000000    -4.015000000    -2.517000000
O    -1.250000000     5.521000000     1.700000000
H    -0.661000000     4.806000000     1.942000000
H    -1.037000000     6.225000000     2.313000000
O     3.585000000    -1.815000000    -6.122000000
H     3.025000000    -1.186000000    -5.667000000
H     3.992000000    -1.308000000    -6.825000000
O    -2.143000000     1.500000000     4.331000000
H    -2.661000000     1.419000000     3.530000000
H    -2.313000000     2.391000000     4.637000000
O    -4.208000000    -4.000000000     0.655000000
H    -4.737000000    -4.272000000     1.406000000
H    -4.847000000    -3.698000000     0.009000000
O     3.820000000    -0.810000000     3.447000000
H     3.359000000    -1.625000000     3.251000000
H     3.151000000    -0.130000000     3.362000000
O    -2.272000000    -1.969000000     1.880000000
H    -2.647000000    -2.649000000     1.320000000
H    -1.689000000    -1.476000000     1.302000000
O    -4.937000000    -3.802000000    -5.382000000
H    -4.020000000    -3.714000000    -5.121000000
H    -4.915000000    -3.796000000    -6.339000000
O     1.102000000    -5.247000000    -0.360000000
H     0.596000000    -6.058000000    -0.307000000
H     1.886000000    -5.419000000     0.161000000
O    -0.378000000     0.062000000    -6.958000000
H     0.485000000    -0.087000000    -6.573000000
H    -0.994000000    -0.184000000    -6.268000000
O     1.108000000    -1.271000000    -4.818000000
H     0.854000000    -2.187000000    -4.700000000
H     1.540000000    -1.035000000    -3.998000000
O    -1.932000000    -0.187000000    -4.478000000
H    -2.707000000    -0.203000000    -3.916000000
H    -1.584000000    -1.077000000    -4.430000000
O    -0.264000000     0.127000000     5.350000000
H    -1.027000000     0.614000000     5.039000000
H     0.400000000     0.265000000     4.675000000
O     2.265000000    -3.262000000     3.733000000
H     2.748000000    -3.997000000     4.109000000
H     1.449000000    -3.649000000     3.415000000
O    -5.393000000     0.264000000    -0.321000000
H    -4.817000000     0.694000000     0.311000000
H    -6.262000000     0.615000000    -0.130000000
O     2.426000000     1.920000000     6.049000000
H     3.309000000     1.575000000     6.179000000
H     2.177000000     1.618000000     5.175000000
O     1.105000000    -4.126000000    -4.653000000
H     2.044000000    -4.291000000    -4.570000000
H     0.724000000    -4.506000000    -3.861000000
O    -2.558000000    -2.971000000    -3.058000000
H    -3.183000000    -3.619000000    -2.732000000
H    -2.964000000    -2.127000000    -2.861000000
O    -2.755000000     3.375000000    -2.123000000
H    -3.313000000     3.820000000    -1.486000000
H    -1.864000000     3.621000000    -1.875000000
O    -0.002000000     3.095000000     7.181000000
H     0.706000000     3.401000000     6.613000000
H     0.416000000     2.463000000     7.766000000
O     4.235000000     3.235000000     1.966000000
H     3.282000000     3.215000000     2.049000000
H     4.497000000     2.314000000     1.993000000
O     0.593000000     4.048000000     4.341000000
H    -0.181000000     3.535000000     4.574000000
H     1.091000000     3.478000000     3.756000000
O    -0.624000000     4.632000000    -1.243000000
H    -1.053000000     5.186000000    -0.591000000
H     0.306000000     4.846000000    -1.164000000
O     3.405000000    -4.919000000    -2.158000000
H     3.027000000    -4.802000000    -1.287000000
H     3.119000000    -5.792000000    -2.428000000
O     1.973000000     3.271000000    -3.724000000
H     2.052000000     2.796000000    -2.897000000
H     1.121000000     3.007000000    -4.072000000
O     2.217000000     5.948000000     4.140000000
H     1.397000000     5.458000000     4.202000000
H     2.421000000     5.955000000     3.205000000
O     0.175000000    -7.510000000    -2.810000000
H    -0.199000000    -6.630000000    -2.756000000
H     1.084000000    -7.368000000    -3.074000000
O    -5.873000000    -2.498000000    -0.963000000
H    -6.827000000    -2.556000000    -0.911000000
H    -5.646000000    -1.767000000    -0.388000000
O    -4.462000000    -0.885000000    -2.899000000
H    -5.156000000    -1.290000000    -3.419000000
H    -4.798000000    -0.895000000    -2.002000000
O    -0.754000000     5.753000000    -4.309000000
H    -1.654000000     5.589000000    -4.592000000
H    -0.626000000     5.163000000    -3.566000000
O     3.616000000    -2.638000000     0.381000000
H     2.868000000    -2.629000000     0.977000000
H     4.251000000    -3.218000000     0.801000000
O     4.870000000     0.298000000     5.834000000
H     5.824000000     0.231000000     5.884000000
H     4.644000000    -0.122000000     5.003000000
O    -4.767000000    -4.538000000    -2.491000000
H    -5.383000000    -4.719000000    -3.201000000
H    -5.250000000    -3.965000000    -1.896000000
O    -1.274000000    -2.459000000     4.558000000
H    -1.067000000    -1.650000000     5.027000000
H    -1.482000000    -2.173000000     3.669000000
O    -3.520000000     1.667000000     1.705000000
H    -3.981000000     2.506000000     1.716000000
H    -2.879000000     1.756000000     1.000000000
O     1.044000000    -3.254000000     6.410000000
H     1.299000000    -2.949000000     5.540000000
H     0.654000000    -2.486000000     6.829000000
