158
-3042.67467
C     1.219000000     0.886000000    -0.161000000
H     1.919000000     1.697000000    -0.349000000
C     0.296000000     0.550000000    -1.144000000
H     0.332000000     0.881000000    -2.179000000
C    -0.761000000    -0.369000000    -0.862000000
H    -1.478000000    -0.528000000    -1.655000000
C    -0.906000000    -0.909000000     0.373000000
H    -1.790000000    -1.443000000     0.713000000
C     0.007000000    -0.567000000     1.385000000
H    -0.087000000    -0.896000000     2.417000000
C     1.024000000     0.403000000     1.118000000
C     1.874000000     0.848000000     2.211000000
O     2.588000000     1.830000000     1.988000000
O     1.902000000     0.285000000     3.327000000
O    -0.980000000     0.053000000    -6.045000000
H    -1.623000000    -0.411000000    -5.508000000
H    -0.199000000    -0.499000000    -6.015000000
O     2.541000000     2.735000000    -3.732000000
H     3.147000000     2.317000000    -3.120000000
H     2.509000000     3.649000000    -3.450000000
O    -5.437000000     2.387000000    -5.271000000
H    -5.969000000     3.079000000    -5.663000000
H    -5.416000000     2.599000000    -4.338000000
O     2.086000000     4.197000000     0.732000000
H     2.200000000     3.320000000     1.097000000
H     2.743000000     4.731000000     1.181000000
O     2.272000000    -3.791000000    -0.079000000
H     2.313000000    -3.126000000     0.609000000
H     2.621000000    -4.582000000     0.332000000
O     5.558000000     0.197000000     6.707000000
H     5.732000000     1.125000000     6.546000000
H     4.908000000    -0.043000000     6.047000000
O    -1.024000000    -1.150000000     7.138000000
H    -1.095000000    -0.522000000     7.857000000
H    -0.690000000    -0.636000000     6.403000000
O     3.367000000    -2.235000000    -2.466000000
H     3.503000000    -1.557000000    -1.804000000
H     3.144000000    -3.019000000    -1.964000000
O     0.328000000    -4.632000000     4.639000000
H     0.596000000    -4.029000000     5.333000000
H    -0.041000000    -4.067000000     3.961000000
O     5.137000000     1.878000000     1.938000000
H     5.240000000     2.355000000     2.761000000
H     4.190000000     1.844000000     1.798000000
O     4.715000000     2.281000000    -2.085000000
H     4.833000000     1.513000000    -1.526000000
H     4.979000000     3.019000000    -1.536000000
O    -4.437000000    -0.110000000    -6.111000000
H    -4.602000000     0.743000000    -5.710000000
H    -4.084000000     0.097000000    -6.976000000
O    -0.014000000    -4.573000000    -4.892000000
H     0.937000000    -4.497000000    -4.965000000
H    -0.251000000    -3.967000000    -4.190000000
O     0.214000000    -4.895000000    -1.936000000
H     0.546000000    -4.467000000    -1.146000000
H    -0.246000000    -4.202000000    -2.408000000
O    -0.456000000     4.074000000     1.480000000
H    -0.839000000     4.922000000     1.704000000
H     0.458000000     4.271000000     1.274000000
O     2.959000000     5.473000000    -2.526000000
H     3.069000000     4.937000000    -1.741000000
H     2.492000000     6.251000000    -2.222000000
O    -2.042000000     1.784000000     3.169000000
H    -2.296000000     2.619000000     3.560000000
H    -1.994000000     1.963000000     2.230000000
O     2.679000000    -0.796000000     5.618000000
H     2.239000000    -1.632000000     5.773000000
H     2.370000000    -0.519000000     4.756000000
O    -4.055000000    -3.958000000     2.524000000
H    -4.919000000    -4.239000000     2.825000000
H    -4.235000000    -3.389000000     1.775000000
O    -2.735000000    -3.468000000    -5.956000000
H    -2.725000000    -3.528000000    -6.911000000
H    -1.814000000    -3.383000000    -5.711000000
O     5.164000000    -2.894000000     3.511000000
H     5.678000000    -2.412000000     4.158000000
H     4.941000000    -3.716000000     3.947000000
O     1.281000000    -1.429000000    -4.663000000
H     0.926000000    -1.573000000    -3.786000000
H     1.973000000    -2.083000000    -4.752000000
O     2.257000000     0.920000000    -5.975000000
H     2.104000000     1.414000000    -5.169000000
H     2.033000000     0.017000000    -5.748000000
O    -0.559000000     0.063000000     4.862000000
H    -1.030000000     0.654000000     4.274000000
H     0.308000000    -0.027000000     4.468000000
O     2.876000000    -2.191000000     2.086000000
H     3.620000000    -2.403000000     2.650000000
H     2.405000000    -1.504000000     2.558000000
O    -4.203000000     0.224000000     0.516000000
H    -3.443000000     0.757000000     0.280000000
H    -4.935000000     0.840000000     0.524000000
O     3.194000000     1.895000000     5.436000000
H     2.910000000     1.381000000     6.192000000
H     2.897000000     1.391000000     4.678000000
O    -1.185000000    -2.910000000    -3.123000000
H    -1.864000000    -3.311000000    -2.580000000
H    -1.592000000    -2.115000000    -3.466000000
O    -5.735000000     2.816000000    -2.275000000
H    -5.140000000     3.436000000    -1.853000000
H    -6.033000000     2.248000000    -1.564000000
O    -0.188000000     5.675000000    -3.992000000
H    -1.117000000     5.534000000    -4.173000000
H    -0.001000000     5.111000000    -3.242000000
O    -3.731000000     3.839000000    -0.471000000
H    -3.249000000     3.117000000    -0.067000000
H    -3.676000000     4.550000000     0.167000000
O     0.865000000     2.859000000     7.000000000
H     0.812000000     2.599000000     6.081000000
H     1.721000000     3.281000000     7.081000000
O     3.529000000     4.398000000     3.283000000
H     3.603000000     4.820000000     4.139000000
H     3.312000000     3.488000000     3.483000000
O     0.869000000     3.292000000     4.060000000
H     1.430000000     2.800000000     3.460000000
H    -0.010000000     3.206000000     3.690000000
O     5.346000000     4.231000000     0.135000000
H     5.043000000     4.881000000     0.769000000
H     5.772000000     3.558000000     0.667000000
O    -0.264000000     4.380000000    -1.630000000
H     0.260000000     3.701000000    -1.206000000
H    -1.144000000     4.260000000    -1.275000000
O     1.606000000     5.614000000     5.432000000
H     1.329000000     4.997000000     4.755000000
H     1.376000000     6.475000000     5.081000000
O    -4.795000000    -2.502000000     0.262000000
H    -5.747000000    -2.556000000     0.186000000
H    -4.617000000    -1.568000000     0.377000000
O    -2.822000000    -0.872000000    -3.744000000
H    -3.346000000    -0.482000000    -4.443000000
H    -3.376000000    -0.809000000    -2.966000000
O    -4.358000000    -0.104000000     3.441000000
H    -3.840000000    -0.588000000     2.798000000
H    -3.829000000     0.669000000     3.642000000
O    -1.801000000    -6.385000000    -0.275000000
H    -1.890000000    -7.205000000    -0.759000000
H    -2.005000000    -5.704000000    -0.916000000
O     4.013000000    -0.808000000    -0.312000000
H     3.465000000    -0.808000000     0.472000000
H     4.897000000    -0.980000000     0.013000000
O     7.466000000     0.117000000     1.881000000
H     7.061000000    -0.547000000     1.324000000
H     6.880000000     0.871000000     1.819000000
O    -5.568000000    -1.099000000    -2.275000000
H    -5.676000000    -1.966000000    -2.667000000
H    -6.454000000    -0.836000000    -2.025000000
O    -3.056000000    -4.025000000    -1.494000000
H    -3.744000000    -4.432000000    -2.022000000
H    -3.522000000    -3.412000000    -0.926000000
O    -1.557000000    -3.083000000     3.177000000
H    -1.764000000    -2.459000000     3.872000000
H    -2.405000000    -3.438000000     2.912000000
O    -1.949000000     2.109000000     0.374000000
H    -1.249000000     2.734000000     0.564000000
H    -1.492000000     1.328000000     0.060000000
O     1.415000000    -3.012000000     6.499000000
H     2.283000000    -3.315000000     6.765000000
H     0.807000000    -3.559000000     6.997000000
