158
-3044.55900
C     1.285000000    -0.304000000     0.622000000
H     2.303000000    -0.369000000     0.998000000
C     1.061000000     0.523000000    -0.515000000
H     1.844000000     1.088000000    -1.013000000
C    -0.208000000     0.726000000    -0.963000000
H    -0.496000000     1.460000000    -1.803000000
C    -1.266000000    -0.017000000    -0.422000000
H    -2.248000000     0.149000000    -0.856000000
C    -1.060000000    -0.847000000     0.676000000
H    -1.842000000    -1.280000000     1.295000000
C     0.233000000    -1.008000000     1.197000000
C     0.434000000    -1.966000000     2.419000000
O     1.564000000    -2.114000000     2.810000000
O    -0.438000000    -2.819000000     2.708000000
O    -2.380000000     5.702000000    -1.779000000
H    -1.533000000     5.791000000    -1.343000000
H    -3.024000000     5.877000000    -1.093000000
O     3.346000000    -3.170000000     4.574000000
H     3.220000000    -4.119000000     4.602000000
H     2.538000000    -2.832000000     4.190000000
O    -3.227000000     0.617000000     3.625000000
H    -2.415000000     0.702000000     3.126000000
H    -3.671000000    -0.135000000     3.233000000
O    -6.523000000    -1.200000000     1.547000000
H    -6.100000000    -2.047000000     1.404000000
H    -7.447000000    -1.358000000     1.356000000
O    -2.528000000    -1.524000000    -5.255000000
H    -2.386000000    -0.627000000    -4.953000000
H    -3.278000000    -1.463000000    -5.846000000
O     2.211000000     6.667000000    -2.724000000
H     2.383000000     5.834000000    -2.286000000
H     2.905000000     7.248000000    -2.414000000
O    -1.512000000    -5.011000000     6.152000000
H    -1.305000000    -5.467000000     6.968000000
H    -0.826000000    -5.285000000     5.544000000
O    -0.435000000    -2.462000000    -1.964000000
H     0.073000000    -1.904000000    -2.553000000
H    -0.644000000    -1.898000000    -1.220000000
O     5.661000000    -3.149000000     1.648000000
H     6.195000000    -3.608000000     0.999000000
H     4.771000000    -3.467000000     1.494000000
O    -4.583000000    -1.462000000    -0.996000000
H    -5.519000000    -1.532000000    -0.811000000
H    -4.247000000    -2.350000000    -0.874000000
O    -0.664000000    -2.476000000     5.495000000
H    -0.386000000    -2.870000000     4.668000000
H    -1.258000000    -3.120000000     5.879000000
O     4.086000000    -2.109000000     7.266000000
H     5.025000000    -1.925000000     7.280000000
H     3.919000000    -2.436000000     6.382000000
O    -2.990000000    -3.721000000     2.174000000
H    -2.110000000    -3.451000000     2.435000000
H    -2.891000000    -4.021000000     1.271000000
O    -2.798000000     1.068000000    -4.457000000
H    -2.829000000     2.024000000    -4.479000000
H    -3.415000000     0.824000000    -3.767000000
O     2.154000000     0.306000000     6.318000000
H     1.206000000     0.287000000     6.447000000
H     2.332000000     1.184000000     5.982000000
O    -2.110000000    -3.556000000    -3.688000000
H    -2.292000000    -2.942000000    -4.400000000
H    -1.663000000    -3.030000000    -3.025000000
O    -4.853000000     1.009000000    -2.001000000
H    -5.739000000     0.720000000    -2.222000000
H    -4.489000000     0.290000000    -1.484000000
O    -2.537000000    -4.368000000    -0.714000000
H    -1.911000000    -3.831000000    -1.200000000
H    -2.736000000    -5.096000000    -1.303000000
O     1.432000000    -4.139000000    -0.539000000
H     0.578000000    -3.736000000    -0.694000000
H     2.046000000    -3.598000000    -1.036000000
O     1.991000000     3.381000000     0.581000000
H     2.127000000     4.308000000     0.778000000
H     1.880000000     3.351000000    -0.369000000
O     3.910000000     2.081000000     1.745000000
H     3.616000000     1.226000000     2.060000000
H     3.193000000     2.393000000     1.193000000
O    -0.656000000    -0.771000000    -6.951000000
H    -1.321000000    -1.311000000    -6.524000000
H    -0.410000000    -0.125000000    -6.289000000
O     0.923000000     3.577000000    -5.028000000
H     0.299000000     4.192000000    -5.413000000
H     1.501000000     3.337000000    -5.753000000
O     3.013000000    -3.974000000     1.433000000
H     2.484000000    -3.954000000     0.635000000
H     2.686000000    -3.242000000     1.955000000
O     2.247000000    -5.576000000     5.150000000
H     2.064000000    -6.499000000     5.327000000
H     1.474000000    -5.264000000     4.680000000
O    -5.543000000    -3.539000000     3.383000000
H    -4.618000000    -3.462000000     3.145000000
H    -6.006000000    -3.537000000     2.545000000
O     3.840000000    -6.208000000    -0.049000000
H     3.681000000    -7.071000000     0.332000000
H     3.947000000    -5.629000000     0.706000000
O     1.089000000    -1.544000000    -4.033000000
H     0.415000000    -0.953000000    -4.368000000
H     1.237000000    -2.166000000    -4.745000000
O    -2.075000000     3.794000000    -4.204000000
H    -2.312000000     4.219000000    -3.380000000
H    -1.516000000     4.430000000    -4.650000000
O     2.093000000     3.998000000    -2.223000000
H     1.529000000     4.129000000    -2.984000000
H     2.806000000     3.447000000    -2.545000000
O    -2.049000000     3.833000000     3.131000000
H    -1.765000000     4.741000000     3.030000000
H    -1.452000000     3.332000000     2.575000000
O     0.036000000    -5.429000000     3.728000000
H    -0.020000000    -4.698000000     3.112000000
H    -0.224000000    -6.195000000     3.215000000
O     1.456000000    -2.533000000     7.697000000
H     0.857000000    -2.457000000     6.955000000
H     2.222000000    -2.020000000     7.441000000
O     5.666000000     0.620000000     4.339000000
H     4.867000000     0.413000000     3.854000000
H     6.224000000    -0.149000000     4.221000000
O     3.402000000     2.502000000     5.243000000
H     4.258000000     2.189000000     4.951000000
H     2.867000000     2.512000000     4.449000000
O     6.358000000     1.435000000    -1.838000000
H     7.225000000     1.426000000    -1.433000000
H     5.886000000     0.719000000    -1.413000000
O    -1.437000000    -6.536000000     1.528000000
H    -2.059000000    -5.993000000     1.044000000
H    -1.889000000    -7.373000000     1.643000000
O     4.317000000     2.839000000    -2.811000000
H     4.820000000     3.541000000    -3.225000000
H     4.973000000     2.310000000    -2.357000000
O    -3.515000000    -5.853000000     4.091000000
H    -2.824000000    -5.588000000     4.699000000
H    -3.587000000    -5.122000000     3.478000000
O     3.103000000    -0.072000000     3.527000000
H     2.526000000    -0.017000000     4.289000000
H     2.981000000    -0.962000000     3.197000000
O    -0.168000000     2.393000000     1.917000000
H     0.693000000     2.811000000     1.896000000
H    -0.177000000     1.824000000     1.148000000
O    -4.538000000     3.735000000     1.733000000
H    -4.973000000     2.909000000     1.946000000
H    -3.611000000     3.570000000     1.908000000
O     3.138000000    -2.363000000    -1.762000000
H     3.752000000    -2.743000000    -2.390000000
H     2.736000000    -1.632000000    -2.232000000
O    -0.705000000     0.063000000     6.380000000
H    -0.850000000    -0.202000000     7.288000000
H    -0.883000000    -0.727000000     5.869000000
O    -0.418000000     5.941000000     0.087000000
H    -0.803000000     5.888000000     0.962000000
H     0.423000000     6.378000000     0.221000000
O    -6.199000000     3.118000000    -1.168000000
H    -5.653000000     2.448000000    -1.578000000
H    -6.218000000     2.879000000    -0.242000000
O    -0.067000000     0.977000000    -4.680000000
H     0.388000000     1.815000000    -4.761000000
H    -0.996000000     1.203000000    -4.726000000
O     5.103000000    -0.792000000    -0.499000000
H     5.374000000    -1.478000000     0.112000000
H     4.342000000    -1.160000000    -0.949000000
