158
-3092.13597
C    -0.371000000     0.757000000     1.159000000
H    -0.591000000     1.393000000     2.013000000
C    -0.431000000     1.198000000    -0.139000000
H    -0.525000000     2.266000000    -0.321000000
C    -0.089000000     0.394000000    -1.218000000
H     0.083000000     0.756000000    -2.280000000
C     0.321000000    -0.890000000    -0.873000000
H     0.731000000    -1.614000000    -1.573000000
C     0.253000000    -1.367000000     0.460000000
H     0.544000000    -2.376000000     0.739000000
C    -0.120000000    -0.547000000     1.493000000
C    -0.047000000    -0.979000000     2.926000000
O    -0.464000000    -0.330000000     3.848000000
O     0.652000000    -1.972000000     3.215000000
O    -3.172000000     4.763000000    -1.874000000
H    -3.572000000     3.894000000    -1.837000000
H    -3.904000000     5.357000000    -2.040000000
O     2.479000000     1.987000000     2.367000000
H     1.623000000     2.399000000     2.481000000
H     2.964000000     2.219000000     3.159000000
O     5.454000000    -4.145000000     1.456000000
H     5.186000000    -4.923000000     1.944000000
H     4.707000000    -3.550000000     1.525000000
O     3.475000000    -1.606000000    -3.229000000
H     2.913000000    -2.263000000    -2.818000000
H     3.987000000    -2.096000000    -3.871000000
O    -2.105000000     6.229000000     0.161000000
H    -2.361000000     5.646000000    -0.553000000
H    -1.151000000     6.161000000     0.196000000
O    -2.312000000     3.215000000     4.855000000
H    -3.193000000     3.048000000     4.519000000
H    -2.386000000     3.074000000     5.799000000
O     5.518000000    -0.758000000     2.861000000
H     4.561000000    -0.770000000     2.869000000
H     5.751000000    -0.845000000     1.937000000
O    -0.610000000    -1.828000000     6.337000000
H    -0.702000000    -2.710000000     5.979000000
H    -0.751000000    -1.249000000     5.587000000
O    -2.071000000    -5.758000000    -3.006000000
H    -1.384000000    -5.791000000    -3.672000000
H    -1.680000000    -5.268000000    -2.283000000
O     2.620000000    -0.749000000     7.860000000
H     2.895000000     0.072000000     8.267000000
H     1.824000000    -0.523000000     7.379000000
O     0.158000000     3.743000000     3.696000000
H     0.528000000     3.792000000     4.578000000
H    -0.748000000     3.465000000     3.831000000
O    -0.874000000     1.296000000     8.170000000
H    -0.423000000     0.453000000     8.141000000
H    -0.996000000     1.471000000     9.103000000
O     5.406000000    -1.232000000    -0.090000000
H     5.548000000    -2.007000000    -0.633000000
H     4.496000000    -1.304000000     0.198000000
O     2.176000000    -3.942000000    -2.763000000
H     1.411000000    -4.089000000    -3.319000000
H     1.901000000    -4.234000000    -1.894000000
O     0.521000000    -0.787000000    -8.601000000
H     0.711000000    -1.720000000    -8.695000000
H     1.067000000    -0.504000000    -7.867000000
O    -2.685000000    -0.323000000    -8.127000000
H    -2.034000000    -0.466000000    -8.814000000
H    -2.195000000     0.090000000    -7.416000000
O    -1.105000000     4.930000000    -6.048000000
H    -0.732000000     4.355000000    -6.716000000
H    -0.983000000     5.813000000    -6.397000000
O    -3.030000000     1.116000000     6.840000000
H    -2.187000000     1.195000000     7.288000000
H    -2.853000000     0.536000000     6.099000000
O     5.091000000     3.066000000    -3.483000000
H     5.442000000     3.934000000    -3.283000000
H     4.693000000     2.774000000    -2.663000000
O     3.035000000    -1.089000000     4.049000000
H     2.186000000    -1.501000000     3.887000000
H     2.822000000    -0.258000000     4.473000000
O     1.774000000    -4.745000000    -0.108000000
H     2.022000000    -4.070000000     0.524000000
H     2.242000000    -5.528000000     0.182000000
O    -0.739000000     4.821000000    -3.009000000
H    -0.667000000     4.945000000    -3.955000000
H    -1.679000000     4.748000000    -2.847000000
O    -0.321000000    -3.724000000    -4.024000000
H    -0.767000000    -3.383000000    -3.249000000
H    -0.381000000    -3.016000000    -4.666000000
O    -0.627000000    -1.589000000    -5.694000000
H    -1.081000000    -0.778000000    -5.467000000
H    -0.359000000    -1.466000000    -6.605000000
O    -1.728000000     1.127000000    -6.110000000
H    -0.929000000     1.619000000    -5.922000000
H    -2.438000000     1.721000000    -5.866000000
O    -4.136000000     2.259000000    -2.518000000
H    -3.549000000     2.217000000    -3.273000000
H    -3.967000000     1.447000000    -2.039000000
O     1.263000000     0.547000000     5.794000000
H     0.686000000     0.312000000     5.068000000
H     1.044000000     1.458000000     5.988000000
O     2.823000000    -2.992000000     1.609000000
H     2.412000000    -3.213000000     2.445000000
H     2.648000000    -2.058000000     1.496000000
O     0.538000000     5.253000000     1.141000000
H     0.489000000     4.817000000     1.991000000
H     1.224000000     5.912000000     1.249000000
O    -3.271000000    -0.377000000    -1.524000000
H    -3.021000000    -1.035000000    -2.172000000
H    -2.749000000    -0.591000000    -0.751000000
O    -3.023000000     3.391000000    -4.785000000
H    -3.669000000     4.088000000    -4.665000000
H    -2.243000000     3.840000000    -5.110000000
O    -5.681000000     0.480000000     5.048000000
H    -4.810000000     0.102000000     4.929000000
H    -5.643000000     0.903000000     5.906000000
O     1.267000000     3.999000000    -1.215000000
H     0.450000000     4.030000000    -1.712000000
H     1.038000000     4.349000000    -0.354000000
O    -0.440000000    -4.342000000     2.420000000
H     0.003000000    -3.522000000     2.640000000
H    -0.386000000    -4.866000000     3.219000000
O     2.206000000    -4.891000000     6.551000000
H     2.590000000    -4.044000000     6.323000000
H     2.110000000    -4.862000000     7.503000000
O    -2.672000000    -3.220000000     1.190000000
H    -1.907000000    -3.323000000     1.755000000
H    -3.385000000    -3.002000000     1.790000000
O     3.626000000    -2.688000000     6.151000000
H     3.543000000    -2.213000000     5.324000000
H     3.501000000    -2.019000000     6.824000000
O     3.716000000     2.855000000    -1.074000000
H     2.823000000     3.131000000    -1.277000000
H     3.693000000     2.636000000    -0.142000000
O    -3.315000000    -2.912000000     3.983000000
H    -2.875000000    -3.343000000     4.716000000
H    -4.248000000    -2.997000000     4.181000000
O    -1.071000000    -4.576000000    -0.777000000
H    -0.294000000    -4.736000000    -0.241000000
H    -1.678000000    -4.125000000    -0.191000000
O    -0.679000000    -4.549000000     5.926000000
H    -1.002000000    -5.410000000     6.191000000
H     0.275000000    -4.629000000     5.962000000
O    -2.860000000    -2.595000000    -2.815000000
H    -2.641000000    -3.422000000    -2.387000000
H    -3.680000000    -2.773000000    -3.275000000
O     1.017000000     2.928000000    -6.956000000
H     1.523000000     3.270000000    -6.219000000
H     1.453000000     2.107000000    -7.185000000
O     2.143000000     0.393000000    -6.162000000
H     2.670000000    -0.406000000    -6.133000000
H     2.215000000     0.759000000    -5.280000000
O     2.894000000    -0.084000000     0.742000000
H     2.600000000     0.602000000     1.342000000
H     2.275000000    -0.045000000     0.013000000
O    -2.877000000    -0.498000000     4.850000000
H    -3.050000000    -1.333000000     4.414000000
H    -2.114000000    -0.144000000     4.394000000
O     2.068000000     3.694000000    -4.654000000
H     2.650000000     3.294000000    -4.009000000
H     1.913000000     4.578000000    -4.321000000
O     2.660000000     1.128000000    -3.403000000
H     2.969000000     1.592000000    -2.625000000
H     2.895000000     0.213000000    -3.245000000
