158
-3048.78694
C    -0.363000000     0.807000000     1.190000000
H    -0.686000000     1.489000000     1.974000000
C    -0.435000000     1.199000000    -0.172000000
H    -0.764000000     2.228000000    -0.300000000
C    -0.186000000     0.314000000    -1.196000000
H    -0.165000000     0.584000000    -2.234000000
C     0.491000000    -0.839000000    -0.848000000
H     0.885000000    -1.432000000    -1.670000000
C     0.556000000    -1.264000000     0.500000000
H     1.055000000    -2.221000000     0.630000000
C     0.194000000    -0.392000000     1.512000000
C     0.385000000    -0.693000000     2.996000000
O     0.522000000     0.260000000     3.779000000
O     0.483000000    -1.868000000     3.381000000
O    -4.564000000    -2.871000000     3.091000000
H    -5.007000000    -3.697000000     2.893000000
H    -3.729000000    -3.135000000     3.478000000
O     2.468000000     4.246000000     1.347000000
H     2.559000000     3.808000000     2.193000000
H     2.445000000     3.532000000     0.710000000
O    -0.146000000    -1.065000000    -4.752000000
H    -0.764000000    -1.534000000    -4.192000000
H    -0.344000000    -0.140000000    -4.606000000
O     3.530000000    -4.031000000     0.506000000
H     2.660000000    -4.130000000     0.893000000
H     4.118000000    -3.950000000     1.257000000
O     2.743000000    -0.361000000    -3.255000000
H     2.090000000    -0.666000000    -3.886000000
H     2.987000000    -1.146000000    -2.765000000
O     2.857000000     0.426000000     7.171000000
H     3.007000000     0.012000000     6.321000000
H     2.829000000     1.364000000     6.979000000
O    -4.637000000    -0.976000000    -2.625000000
H    -4.381000000    -0.156000000    -2.202000000
H    -4.988000000    -1.513000000    -1.915000000
O    -2.311000000     5.577000000     2.098000000
H    -3.255000000     5.452000000     1.996000000
H    -2.178000000     5.638000000     3.044000000
O     4.422000000     0.574000000     3.637000000
H     4.349000000     0.981000000     2.774000000
H     5.250000000     0.902000000     3.987000000
O    -0.088000000     0.158000000     6.191000000
H     0.032000000     0.097000000     5.244000000
H     0.800000000     0.220000000     6.542000000
O     5.122000000     1.540000000     0.671000000
H     4.206000000     1.380000000     0.445000000
H     5.520000000     0.670000000     0.689000000
O    -0.803000000     2.729000000     6.200000000
H    -0.646000000     1.785000000     6.164000000
H    -0.170000000     3.052000000     6.841000000
O    -4.395000000     1.303000000    -0.953000000
H    -4.379000000     2.202000000    -0.626000000
H    -4.190000000     0.765000000    -0.188000000
O    -1.741000000    -2.609000000    -3.005000000
H    -2.491000000    -2.781000000    -3.574000000
H    -1.550000000    -3.455000000    -2.600000000
O     0.552000000     2.632000000    -7.235000000
H    -0.163000000     2.089000000    -7.567000000
H     0.176000000     3.088000000    -6.481000000
O    -0.546000000    -4.700000000    -4.778000000
H     0.083000000    -3.981000000    -4.732000000
H    -0.652000000    -4.985000000    -3.871000000
O    -0.888000000     4.490000000    -5.487000000
H    -1.534000000     4.991000000    -4.989000000
H    -0.376000000     5.153000000    -5.951000000
O    -2.692000000     1.191000000     3.883000000
H    -1.803000000     1.058000000     4.212000000
H    -2.792000000     0.535000000     3.193000000
O     2.886000000    -1.073000000     4.891000000
H     2.108000000    -1.019000000     4.336000000
H     3.547000000    -0.558000000     4.427000000
O    -1.164000000    -5.846000000     4.956000000
H    -0.341000000    -6.315000000     4.815000000
H    -1.154000000    -5.144000000     4.305000000
O     1.139000000    -6.490000000    -0.311000000
H     1.775000000    -5.978000000     0.189000000
H     0.504000000    -6.786000000     0.341000000
O    -0.291000000     6.418000000    -2.315000000
H    -1.010000000     6.231000000    -2.919000000
H    -0.606000000     6.109000000    -1.465000000
O    -1.400000000    -2.228000000     7.389000000
H    -1.399000000    -2.190000000     8.346000000
H    -0.949000000    -1.429000000     7.117000000
O     2.432000000    -2.792000000    -5.266000000
H     2.514000000    -2.396000000    -6.133000000
H     1.580000000    -2.496000000    -4.946000000
O    -2.597000000     0.570000000    -6.748000000
H    -2.080000000     1.008000000    -6.071000000
H    -3.504000000     0.792000000    -6.537000000
O    -3.340000000     2.172000000    -3.943000000
H    -3.923000000     1.672000000    -3.373000000
H    -3.902000000     2.842000000    -4.332000000
O     1.872000000     2.598000000     3.721000000
H     1.124000000     2.006000000     3.793000000
H     2.575000000     2.153000000     4.195000000
O     1.359000000    -4.476000000     1.940000000
H     0.514000000    -4.073000000     1.741000000
H     1.256000000    -4.822000000     2.827000000
O    -0.200000000     5.181000000     0.308000000
H    -0.922000000     5.309000000     0.923000000
H     0.587000000     5.223000000     0.851000000
O    -2.598000000    -1.490000000    -0.124000000
H    -2.872000000    -1.783000000    -0.994000000
H    -2.055000000    -0.720000000    -0.292000000
O    -5.728000000     1.785000000     2.007000000
H    -6.101000000     0.980000000     2.366000000
H    -4.813000000     1.771000000     2.287000000
O     1.343000000     3.585000000    -2.020000000
H     1.651000000     4.482000000    -2.147000000
H     0.650000000     3.660000000    -1.364000000
O     1.684000000     5.039000000     5.149000000
H     1.596000000     5.818000000     4.599000000
H     1.845000000     4.326000000     4.530000000
O     0.546000000    -3.460000000     5.575000000
H    -0.176000000    -2.997000000     5.998000000
H     0.827000000    -2.875000000     4.871000000
O    -1.822000000    -3.246000000     3.513000000
H    -1.043000000    -2.722000000     3.697000000
H    -1.830000000    -3.338000000     2.561000000
O     3.898000000    -3.577000000     4.368000000
H     4.749000000    -3.207000000     4.133000000
H     3.326000000    -2.816000000     4.468000000
O     5.317000000     0.915000000    -2.378000000
H     4.470000000     0.721000000    -2.780000000
H     5.105000000     1.156000000    -1.477000000
O    -1.258000000    -3.849000000     1.032000000
H    -1.344000000    -3.130000000     0.406000000
H    -2.098000000    -4.306000000     0.989000000
O    -3.522000000     3.779000000     5.428000000
H    -3.935000000     2.916000000     5.418000000
H    -2.591000000     3.600000000     5.293000000
O    -1.069000000    -5.715000000    -2.051000000
H    -0.377000000    -5.677000000    -1.391000000
H    -1.504000000    -6.554000000    -1.895000000
O     4.434000000     0.252000000    -5.645000000
H     4.075000000    -0.006000000    -4.796000000
H     3.733000000     0.755000000    -6.059000000
O    -3.554000000    -1.657000000    -5.103000000
H    -3.488000000    -0.902000000    -5.687000000
H    -3.978000000    -1.315000000    -4.315000000
O     2.547000000     1.758000000    -0.238000000
H     2.318000000     1.979000000    -1.141000000
H     1.890000000     1.114000000     0.026000000
O     2.712000000     3.042000000     6.522000000
H     2.355000000     3.859000000     6.173000000
H     3.629000000     3.045000000     6.249000000
O     3.533000000    -2.488000000    -1.845000000
H     3.780000000    -2.756000000    -0.960000000
H     3.722000000    -3.253000000    -2.388000000
O    -3.882000000    -0.416000000     1.953000000
H    -4.373000000    -1.188000000     2.236000000
H    -3.381000000    -0.716000000     1.195000000
O    -0.570000000     1.625000000    -4.401000000
H    -0.154000000     2.484000000    -4.475000000
H    -1.464000000     1.816000000    -4.119000000
O     2.549000000     2.340000000    -4.171000000
H     2.174000000     2.906000000    -3.496000000
H     2.297000000     1.455000000    -3.908000000
