158
-3024.21018
C    -0.587000000    -1.373000000     0.076000000
H    -1.039000000    -2.356000000    -0.024000000
C     0.730000000    -1.103000000    -0.437000000
H     1.351000000    -1.860000000    -0.907000000
C     1.211000000     0.223000000    -0.322000000
H     2.242000000     0.488000000    -0.590000000
C     0.301000000     1.212000000     0.113000000
H     0.612000000     2.252000000     0.163000000
C    -0.942000000     0.937000000     0.637000000
H    -1.557000000     1.773000000     0.960000000
C    -1.403000000    -0.361000000     0.573000000
C    -2.796000000    -0.761000000     1.066000000
O    -3.293000000    -1.864000000     0.946000000
O    -3.349000000     0.127000000     1.741000000
O     0.868000000    -4.356000000    -1.514000000
H     1.201000000    -4.787000000    -0.727000000
H     1.609000000    -4.358000000    -2.120000000
O    -2.431000000     3.713000000    -1.554000000
H    -3.323000000     3.985000000    -1.336000000
H    -2.199000000     4.243000000    -2.316000000
O     3.490000000     0.365000000    -6.380000000
H     2.762000000    -0.230000000    -6.203000000
H     3.911000000     0.003000000    -7.160000000
O    -2.442000000     0.556000000     4.375000000
H    -2.831000000     0.546000000     3.501000000
H    -1.642000000     1.073000000     4.275000000
O     4.232000000    -2.010000000    -2.699000000
H     5.125000000    -2.083000000    -3.037000000
H     4.316000000    -2.186000000    -1.762000000
O     3.663000000    -2.944000000    -5.951000000
H     3.335000000    -3.780000000    -6.281000000
H     3.018000000    -2.675000000    -5.297000000
O     6.948000000     1.727000000    -0.528000000
H     6.268000000     1.965000000    -1.157000000
H     6.513000000     1.773000000     0.324000000
O    -2.263000000     5.631000000     0.541000000
H    -1.808000000     5.455000000     1.364000000
H    -2.311000000     4.779000000     0.107000000
O    -2.925000000    -4.719000000     5.062000000
H    -3.236000000    -5.148000000     4.265000000
H    -3.026000000    -3.784000000     4.885000000
O     6.781000000    -2.469000000    -3.256000000
H     7.069000000    -2.603000000    -2.353000000
H     6.678000000    -1.520000000    -3.336000000
O    -2.601000000    -0.750000000    -3.229000000
H    -2.818000000    -1.477000000    -2.645000000
H    -2.893000000     0.030000000    -2.758000000
O     5.852000000     1.945000000    -5.292000000
H     4.941000000     1.665000000    -5.374000000
H     6.305000000     1.503000000    -6.010000000
O    -5.968000000    -0.405000000     2.355000000
H    -5.851000000    -1.340000000     2.188000000
H    -5.091000000    -0.033000000     2.265000000
O    -5.721000000    -2.344000000     5.277000000
H    -5.834000000    -2.856000000     4.476000000
H    -4.772000000    -2.278000000     5.387000000
O    -4.218000000     3.134000000     2.419000000
H    -3.291000000     3.371000000     2.398000000
H    -4.250000000     2.258000000     2.034000000
O    -6.112000000    -1.993000000    -1.346000000
H    -5.365000000    -1.689000000    -0.830000000
H    -5.723000000    -2.523000000    -2.041000000
O    -2.136000000    -3.758000000     2.432000000
H    -1.369000000    -3.323000000     2.805000000
H    -2.666000000    -3.045000000     2.076000000
O     1.072000000    -2.589000000    -4.530000000
H     0.720000000    -2.188000000    -3.735000000
H     1.513000000    -3.381000000    -4.224000000
O    -4.153000000     0.981000000    -1.601000000
H    -4.835000000     1.579000000    -1.906000000
H    -3.726000000     1.450000000    -0.885000000
O    -6.206000000     1.240000000     4.581000000
H    -5.438000000     1.102000000     5.135000000
H    -6.051000000     0.687000000     3.815000000
O    -5.159000000    -3.694000000     1.575000000
H    -4.534000000    -4.259000000     2.030000000
H    -4.727000000    -2.840000000     1.539000000
O     0.852000000     4.565000000     0.749000000
H     0.084000000     5.120000000     0.611000000
H     1.436000000     4.780000000     0.021000000
O    -7.954000000    -3.020000000     0.482000000
H    -7.576000000    -3.510000000     1.212000000
H    -7.198000000    -2.726000000    -0.026000000
O     3.958000000     1.046000000     4.832000000
H     3.207000000     0.962000000     5.420000000
H     3.572000000     1.075000000     3.956000000
O    -1.553000000    -5.311000000     0.263000000
H    -1.065000000    -4.632000000    -0.203000000
H    -1.783000000    -4.908000000     1.100000000
O     1.679000000     3.683000000     3.346000000
H     2.360000000     3.011000000     3.334000000
H     1.516000000     3.876000000     2.423000000
O     1.478000000    -4.107000000     1.486000000
H     1.159000000    -3.252000000     1.776000000
H     0.923000000    -4.738000000     1.943000000
O     6.230000000     2.628000000     2.166000000
H     5.622000000     3.171000000     1.664000000
H     6.655000000     3.239000000     2.768000000
O     3.022000000     0.961000000    -3.737000000
H     3.277000000     0.753000000    -4.636000000
H     2.113000000     0.669000000    -3.672000000
O    -0.057000000     2.054000000     4.684000000
H     0.496000000     1.445000000     5.173000000
H     0.557000000     2.679000000     4.298000000
O     0.329000000    -7.374000000     0.421000000
H     0.008000000    -8.268000000     0.540000000
H    -0.412000000    -6.819000000     0.667000000
O     4.645000000     1.906000000    -1.956000000
H     3.985000000     1.363000000    -2.388000000
H     4.459000000     2.795000000    -2.259000000
O     3.117000000     1.667000000     2.077000000
H     3.609000000     2.243000000     1.492000000
H     2.749000000     0.998000000     1.500000000
O     2.130000000     4.664000000    -1.495000000
H     2.700000000     5.335000000    -1.870000000
H     1.538000000     4.427000000    -2.209000000
O     3.401000000     6.234000000    -3.329000000
H     4.300000000     6.564000000    -3.316000000
H     3.473000000     5.359000000    -3.711000000
O     3.764000000    -2.917000000     0.150000000
H     3.012000000    -3.149000000     0.695000000
H     3.984000000    -3.727000000    -0.312000000
O    -3.043000000    -1.901000000     5.420000000
H    -2.457000000    -2.041000000     6.164000000
H    -2.769000000    -1.060000000     5.054000000
O     0.369000000     4.656000000    -4.058000000
H    -0.197000000     5.429000000    -4.073000000
H    -0.218000000     3.927000000    -4.259000000
O     0.295000000     0.854000000    -3.309000000
H     0.026000000     0.483000000    -2.469000000
H    -0.466000000     1.355000000    -3.604000000
O     6.288000000    -2.925000000     2.003000000
H     5.768000000    -2.610000000     1.265000000
H     5.987000000    -2.406000000     2.748000000
O    -4.312000000     0.970000000     6.553000000
H    -3.526000000     1.277000000     6.100000000
H    -3.993000000     0.300000000     7.158000000
O    -1.246000000     4.443000000     2.835000000
H    -1.676000000     5.182000000     3.267000000
H    -0.709000000     4.045000000     3.520000000
O     3.118000000     3.698000000    -4.338000000
H     2.212000000     4.007000000    -4.355000000
H     3.047000000     2.755000000    -4.186000000
O     3.903000000     4.105000000     1.022000000
H     3.562000000     4.443000000     0.194000000
H     3.848000000     4.847000000     1.624000000
O     2.991000000    -4.513000000    -3.026000000
H     3.553000000    -3.806000000    -2.708000000
H     3.565000000    -5.279000000    -3.055000000
O    -0.077000000    -2.191000000     3.566000000
H     0.548000000    -1.471000000     3.651000000
H     0.107000000    -2.758000000     4.315000000
O    -0.920000000    -5.342000000    -3.238000000
H    -0.034000000    -5.689000000    -3.342000000
H    -0.864000000    -4.769000000    -2.473000000
O    -3.221000000    -3.137000000    -1.264000000
H    -3.502000000    -4.051000000    -1.212000000
H    -3.222000000    -2.834000000    -0.356000000
