158
-3036.30984
C     1.073000000    -0.814000000     0.504000000
H     1.865000000    -1.328000000     1.044000000
C     1.234000000     0.356000000    -0.255000000
H     2.224000000     0.749000000    -0.470000000
C     0.087000000     1.069000000    -0.642000000
H     0.161000000     2.017000000    -1.184000000
C    -1.155000000     0.516000000    -0.416000000
H    -1.965000000     1.147000000    -0.774000000
C    -1.307000000    -0.712000000     0.229000000
H    -2.289000000    -1.100000000     0.485000000
C    -0.176000000    -1.423000000     0.674000000
C    -0.245000000    -2.820000000     1.354000000
O     0.662000000    -3.114000000     2.120000000
O    -1.194000000    -3.488000000     1.065000000
O    -5.400000000    -5.171000000     2.524000000
H    -5.600000000    -4.823000000     3.393000000
H    -4.444000000    -5.216000000     2.498000000
O     1.747000000    -1.502000000     3.662000000
H     0.883000000    -1.120000000     3.814000000
H     1.603000000    -2.158000000     2.979000000
O    -1.101000000     0.675000000    -4.731000000
H    -0.759000000     0.002000000    -4.143000000
H    -1.886000000     0.282000000    -5.113000000
O    -4.056000000     0.849000000     3.674000000
H    -4.275000000     1.183000000     2.804000000
H    -4.528000000     0.019000000     3.737000000
O     2.976000000     3.536000000    -5.002000000
H     2.113000000     3.951000000    -4.989000000
H     3.420000000     3.884000000    -4.229000000
O    -3.374000000    -4.359000000    -2.797000000
H    -4.330000000    -4.393000000    -2.790000000
H    -3.140000000    -4.387000000    -3.725000000
O     0.823000000    -7.118000000     2.651000000
H     1.319000000    -7.126000000     3.470000000
H     0.753000000    -6.191000000     2.423000000
O    -0.499000000    -5.478000000    -3.367000000
H     0.417000000    -5.710000000    -3.520000000
H    -0.520000000    -5.176000000    -2.459000000
O     3.267000000    -4.918000000     4.246000000
H     3.946000000    -5.592000000     4.266000000
H     3.581000000    -4.243000000     4.847000000
O    -4.739000000     1.155000000     0.413000000
H    -5.505000000     1.256000000     0.979000000
H    -4.346000000     2.027000000     0.385000000
O     0.364000000    -4.238000000     4.689000000
H     0.439000000    -3.740000000     3.875000000
H     1.202000000    -4.694000000     4.769000000
O    -2.348000000    -5.084000000     2.789000000
H    -1.941000000    -4.598000000     2.073000000
H    -2.083000000    -4.614000000     3.580000000
O    -4.583000000    -2.625000000     0.812000000
H    -3.882000000    -3.216000000     1.084000000
H    -4.845000000    -2.178000000     1.617000000
O    -3.506000000    -0.581000000    -3.445000000
H    -4.192000000    -0.589000000    -2.777000000
H    -2.863000000    -1.220000000    -3.136000000
O    -3.304000000    -7.819000000     2.752000000
H    -2.646000000    -8.466000000     2.498000000
H    -2.806000000    -7.013000000     2.889000000
O     3.122000000    -6.947000000    -0.032000000
H     4.057000000    -6.934000000     0.170000000
H     2.763000000    -6.200000000     0.448000000
O    -0.034000000     1.613000000     2.535000000
H     0.194000000     1.060000000     1.787000000
H     0.807000000     1.932000000     2.862000000
O    -5.263000000    -0.795000000    -1.318000000
H    -5.212000000    -0.106000000    -0.657000000
H    -5.205000000    -1.611000000    -0.820000000
O     3.760000000     4.738000000    -2.770000000
H     3.813000000     3.799000000    -2.594000000
H     4.671000000     5.031000000    -2.784000000
O     0.288000000     5.013000000     0.927000000
H     0.202000000     5.920000000     1.219000000
H     1.221000000     4.909000000     0.740000000
O     4.180000000    -4.016000000    -0.732000000
H     5.038000000    -4.439000000    -0.781000000
H     3.867000000    -4.210000000     0.152000000
O    -4.892000000    -6.346000000    -1.392000000
H    -5.349000000    -5.970000000    -2.144000000
H    -3.965000000    -6.187000000    -1.571000000
O    -4.687000000     4.091000000     0.441000000
H    -3.984000000     4.651000000     0.770000000
H    -4.476000000     3.962000000    -0.484000000
O     4.347000000    -1.372000000    -1.133000000
H     3.914000000    -1.133000000    -1.952000000
H     4.275000000    -2.325000000    -1.092000000
O     0.548000000     4.672000000    -4.231000000
H     0.502000000     4.562000000    -3.281000000
H    -0.059000000     5.387000000    -4.419000000
O     2.836000000     4.246000000     0.372000000
H     2.898000000     3.847000000    -0.496000000
H     3.519000000     4.917000000     0.376000000
O    -0.702000000     4.409000000    -1.594000000
H    -0.978000000     3.492000000    -1.586000000
H    -0.223000000     4.522000000    -0.772000000
O    -2.775000000     6.021000000    -0.575000000
H    -2.058000000     5.583000000    -1.033000000
H    -2.545000000     6.950000000    -0.604000000
O    -1.539000000    -5.388000000    -0.639000000
H    -2.100000000    -4.914000000    -1.254000000
H    -1.325000000    -4.743000000     0.035000000
O     2.856000000    -4.671000000     1.609000000
H     1.986000000    -4.280000000     1.540000000
H     2.988000000    -4.797000000     2.549000000
O    -2.262000000    -4.848000000     5.757000000
H    -1.431000000    -4.736000000     5.295000000
H    -2.208000000    -4.244000000     6.497000000
O     7.047000000    -1.901000000     0.674000000
H     6.159000000    -2.243000000     0.567000000
H     7.616000000    -2.635000000     0.442000000
O     4.400000000     0.680000000     0.784000000
H     4.613000000    -0.046000000     0.197000000
H     4.903000000     1.419000000     0.443000000
O    -0.275000000    -1.152000000    -2.885000000
H     0.304000000    -1.894000000    -3.062000000
H     0.040000000    -0.796000000    -2.054000000
O     2.516000000     7.203000000    -3.383000000
H     2.395000000     7.776000000    -2.626000000
H     2.559000000     6.322000000    -3.011000000
O     6.129000000     2.733000000     0.283000000
H     6.629000000     3.189000000     0.960000000
H     6.582000000     2.946000000    -0.533000000
O     6.578000000    -0.360000000    -1.862000000
H     6.759000000    -0.295000000    -0.924000000
H     5.692000000    -0.720000000    -1.910000000
O    -1.565000000    -8.032000000     0.454000000
H    -0.977000000    -8.242000000     1.179000000
H    -1.358000000    -7.124000000     0.234000000
O     3.740000000    -2.221000000     5.578000000
H     3.830000000    -1.562000000     6.266000000
H     2.831000000    -2.143000000     5.289000000
O     4.230000000    -0.357000000    -3.862000000
H     3.528000000    -0.702000000    -4.413000000
H     4.989000000    -0.307000000    -4.443000000
O     4.133000000    -0.104000000     3.400000000
H     4.153000000     0.143000000     2.475000000
H     3.299000000    -0.562000000     3.507000000
O     2.680000000     2.520000000     2.603000000
H     2.682000000     3.316000000     2.072000000
H     2.557000000     1.811000000     1.972000000
O    -1.914000000     3.835000000     2.350000000
H    -1.223000000     4.223000000     1.813000000
H    -1.553000000     2.995000000     2.634000000
O     1.797000000    -0.362000000    -5.997000000
H     0.972000000    -0.032000000    -5.641000000
H     1.579000000    -1.225000000    -6.347000000
O     4.270000000     1.953000000    -2.226000000
H     5.208000000     1.810000000    -2.353000000
H     3.852000000     1.254000000    -2.729000000
O    -1.009000000    -0.332000000     4.475000000
H    -0.630000000     0.304000000     3.868000000
H    -1.955000000    -0.237000000     4.361000000
O    -4.220000000     3.616000000    -2.071000000
H    -4.700000000     2.804000000    -2.236000000
H    -3.473000000     3.579000000    -2.669000000
O    -2.130000000     2.887000000    -3.918000000
H    -1.386000000     3.465000000    -4.089000000
H    -1.848000000     2.032000000    -4.243000000
