158
-3037.56627
C     1.096000000    -1.006000000    -0.002000000
H     2.022000000    -1.575000000    -0.002000000
C     1.109000000     0.324000000    -0.500000000
H     2.038000000     0.730000000    -0.893000000
C    -0.020000000     1.101000000    -0.530000000
H    -0.053000000     2.053000000    -0.924000000
C    -1.131000000     0.736000000     0.192000000
H    -1.861000000     1.521000000     0.373000000
C    -1.129000000    -0.579000000     0.765000000
H    -2.003000000    -0.808000000     1.369000000
C    -0.056000000    -1.479000000     0.606000000
C    -0.086000000    -2.859000000     1.311000000
O     0.955000000    -3.483000000     1.266000000
O    -1.064000000    -3.113000000     2.043000000
O    -5.137000000     2.634000000    -4.525000000
H    -4.535000000     2.207000000    -3.915000000
H    -4.907000000     3.562000000    -4.477000000
O     1.683000000    -2.199000000     3.959000000
H     1.114000000    -1.444000000     4.114000000
H     1.373000000    -2.565000000     3.131000000
O    -2.252000000    -1.288000000     3.939000000
H    -3.097000000    -1.058000000     3.554000000
H    -1.908000000    -1.975000000     3.368000000
O     3.282000000     3.035000000    -5.076000000
H     2.535000000     3.420000000    -4.618000000
H     3.759000000     2.559000000    -4.397000000
O    -2.095000000     4.860000000    -4.264000000
H    -3.048000000     4.889000000    -4.344000000
H    -1.937000000     4.372000000    -3.456000000
O     3.576000000    -5.582000000     3.528000000
H     4.230000000    -5.707000000     2.840000000
H     3.687000000    -4.671000000     3.800000000
O    -4.638000000    -0.566000000     2.972000000
H    -5.552000000    -0.846000000     2.928000000
H    -4.640000000     0.316000000     2.601000000
O    -1.226000000    -4.392000000     4.296000000
H    -1.343000000    -3.951000000     3.454000000
H    -0.466000000    -4.959000000     4.166000000
O    -2.970000000    -4.493000000     1.427000000
H    -2.199000000    -3.986000000     1.682000000
H    -3.375000000    -4.747000000     2.257000000
O    -3.174000000     0.123000000     6.374000000
H    -3.240000000     0.912000000     5.837000000
H    -2.915000000    -0.564000000     5.760000000
O    -3.034000000     1.976000000    -2.580000000
H    -2.515000000     2.600000000    -2.072000000
H    -2.386000000     1.460000000    -3.059000000
O    -3.111000000    -1.542000000    -3.083000000
H    -2.976000000    -1.784000000    -2.166000000
H    -3.589000000    -2.282000000    -3.457000000
O    -4.290000000     2.255000000     2.065000000
H    -5.087000000     2.237000000     2.595000000
H    -4.057000000     3.182000000     2.015000000
O    -0.162000000     2.162000000     2.780000000
H    -0.817000000     1.900000000     2.133000000
H     0.678000000     1.988000000     2.356000000
O    -3.572000000    -2.275000000    -0.592000000
H    -3.904000000    -1.383000000    -0.501000000
H    -3.899000000    -2.733000000     0.183000000
O     4.144000000     1.434000000    -3.061000000
H     5.006000000     1.673000000    -3.403000000
H     4.248000000     0.531000000    -2.759000000
O     2.797000000     4.606000000     0.630000000
H     3.498000000     5.054000000     1.103000000
H     3.204000000     4.323000000    -0.189000000
O     3.151000000    -4.331000000    -0.073000000
H     3.860000000    -3.772000000     0.247000000
H     2.413000000    -4.136000000     0.504000000
O    -4.944000000    -5.269000000    -0.539000000
H    -4.331000000    -5.030000000     0.157000000
H    -4.467000000    -5.090000000    -1.350000000
O    -3.954000000     5.046000000     2.419000000
H    -4.083000000     5.987000000     2.537000000
H    -3.267000000     4.980000000     1.755000000
O    -1.839000000     7.649000000    -0.663000000
H    -2.736000000     7.844000000    -0.936000000
H    -1.358000000     7.542000000    -1.484000000
O     2.967000000    -5.997000000    -2.298000000
H     2.271000000    -5.641000000    -2.850000000
H     3.102000000    -5.331000000    -1.624000000
O     1.080000000     4.039000000    -3.798000000
H     1.141000000     4.417000000    -2.921000000
H     0.286000000     4.423000000    -4.169000000
O    -0.878000000     7.376000000    -3.299000000
H    -0.215000000     7.430000000    -3.988000000
H    -1.193000000     6.474000000    -3.341000000
O     4.000000000     3.910000000    -1.579000000
H     3.898000000     2.958000000    -1.589000000
H     4.366000000     4.120000000    -2.439000000
O     0.760000000     6.060000000     2.330000000
H     1.478000000     5.572000000     1.926000000
H     1.172000000     6.853000000     2.673000000
O     3.028000000    -6.948000000     0.391000000
H     3.579000000    -7.171000000    -0.359000000
H     3.102000000    -5.996000000     0.468000000
O    -0.530000000    -3.749000000     6.720000000
H    -0.113000000    -2.888000000     6.765000000
H    -0.863000000    -3.807000000     5.825000000
O     0.838000000     4.912000000    -1.236000000
H     0.946000000     5.855000000    -1.364000000
H     1.152000000     4.755000000    -0.345000000
O    -1.743000000     3.934000000    -1.452000000
H    -0.826000000     4.202000000    -1.512000000
H    -2.067000000     4.368000000    -0.663000000
O    -1.074000000    -6.694000000     0.796000000
H    -1.646000000    -6.020000000     1.163000000
H    -0.192000000    -6.333000000     0.885000000
O     0.788000000    -5.776000000     2.826000000
H     0.808000000    -4.959000000     2.326000000
H     1.701000000    -5.934000000     3.063000000
O    -4.021000000    -4.269000000     4.022000000
H    -3.195000000    -4.194000000     4.501000000
H    -4.686000000    -3.972000000     4.644000000
O     4.561000000     0.904000000     0.416000000
H     4.125000000     0.403000000    -0.273000000
H     5.484000000     0.907000000     0.163000000
O     0.660000000    -1.348000000    -3.534000000
H     1.568000000    -1.551000000    -3.759000000
H     0.696000000    -1.068000000    -2.619000000
O     2.632000000     6.126000000    -4.989000000
H     2.510000000     5.224000000    -4.694000000
H     3.582000000     6.237000000    -5.034000000
O     5.406000000    -3.271000000    -1.315000000
H     6.265000000    -3.157000000    -1.721000000
H     5.269000000    -4.219000000    -1.307000000
O     4.087000000    -3.021000000     4.651000000
H     4.101000000    -2.599000000     5.510000000
H     3.223000000    -2.811000000     4.295000000
O     3.238000000    -2.497000000    -3.549000000
H     2.664000000    -3.118000000    -3.999000000
H     4.019000000    -3.007000000    -3.334000000
O     4.802000000    -0.123000000     3.303000000
H     4.907000000    -0.027000000     2.356000000
H     4.814000000    -1.068000000     3.451000000
O     2.545000000     2.261000000     1.971000000
H     2.675000000     3.085000000     1.502000000
H     3.274000000     1.708000000     1.689000000
O    -0.854000000     1.452000000    -6.531000000
H    -0.264000000     0.874000000    -7.013000000
H    -0.844000000     1.113000000    -5.636000000
O     4.519000000    -0.794000000    -1.902000000
H     4.953000000    -1.507000000    -1.434000000
H     3.923000000    -1.233000000    -2.509000000
O     0.038000000     0.050000000     4.500000000
H     0.002000000     0.847000000     3.971000000
H    -0.830000000    -0.341000000     4.403000000
O    -1.367000000     5.372000000     1.133000000
H    -0.649000000     5.553000000     1.739000000
H    -1.497000000     6.195000000     0.662000000
O    -4.644000000     0.738000000    -0.468000000
H    -3.984000000     0.811000000    -1.157000000
H    -4.367000000     1.368000000     0.197000000
O    -1.368000000     0.472000000    -3.983000000
H    -0.597000000    -0.056000000    -3.778000000
H    -2.110000000    -0.085000000    -3.745000000
O     5.672000000    -2.758000000     2.320000000
H     6.170000000    -3.552000000     2.125000000
H     5.366000000    -2.882000000     3.219000000
