158
-3041.11989
C     1.159000000    -0.907000000     0.117000000
H     2.142000000    -1.321000000     0.328000000
C     1.078000000     0.305000000    -0.543000000
H     1.969000000     0.831000000    -0.874000000
C    -0.101000000     1.000000000    -0.709000000
H    -0.199000000     2.041000000    -1.140000000
C    -1.242000000     0.461000000    -0.121000000
H    -2.100000000     1.104000000    -0.295000000
C    -1.228000000    -0.758000000     0.536000000
H    -2.130000000    -1.193000000     0.959000000
C     0.005000000    -1.399000000     0.746000000
C     0.114000000    -2.554000000     1.638000000
O     1.236000000    -3.070000000     1.776000000
O    -0.809000000    -2.867000000     2.413000000
O    -3.555000000     5.055000000    -4.354000000
H    -3.690000000     4.759000000    -3.454000000
H    -2.771000000     5.603000000    -4.311000000
O     2.711000000    -1.558000000     3.827000000
H     2.201000000    -0.760000000     3.959000000
H     2.265000000    -2.012000000     3.112000000
O    -2.662000000    -1.105000000     3.683000000
H    -3.264000000    -1.187000000     2.943000000
H    -2.044000000    -1.826000000     3.570000000
O    -2.992000000    -2.728000000    -3.710000000
H    -2.269000000    -2.250000000    -3.304000000
H    -3.780000000    -2.294000000    -3.382000000
O    -0.339000000     3.736000000    -2.959000000
H    -0.503000000     4.593000000    -3.351000000
H     0.309000000     3.906000000    -2.275000000
O    -6.269000000    -2.802000000    -0.398000000
H    -6.929000000    -3.144000000    -1.001000000
H    -5.689000000    -3.546000000    -0.232000000
O     0.365000000    -7.660000000     3.689000000
H     0.404000000    -7.879000000     4.620000000
H     0.533000000    -6.718000000     3.657000000
O     1.038000000    -4.681000000    -2.979000000
H     0.476000000    -5.234000000    -2.436000000
H     1.468000000    -4.093000000    -2.358000000
O     4.664000000    -4.786000000     3.678000000
H     5.201000000    -5.501000000     3.336000000
H     4.464000000    -4.249000000     2.911000000
O    -4.568000000    -1.240000000     1.777000000
H    -5.439000000    -1.469000000     2.103000000
H    -4.654000000    -0.334000000     1.482000000
O    -1.933000000    -4.566000000     4.046000000
H    -1.525000000    -4.239000000     4.848000000
H    -1.470000000    -4.114000000     3.341000000
O    -3.177000000    -3.515000000     1.245000000
H    -2.378000000    -3.511000000     1.771000000
H    -3.600000000    -2.679000000     1.444000000
O    -3.537000000     1.097000000     5.040000000
H    -2.675000000     1.455000000     5.256000000
H    -3.348000000     0.306000000     4.536000000
O    -2.923000000     3.970000000    -1.844000000
H    -2.766000000     4.070000000    -0.905000000
H    -2.072000000     3.720000000    -2.204000000
O    -0.805000000    -1.374000000    -2.790000000
H    -0.298000000    -0.801000000    -3.366000000
H    -0.836000000    -0.907000000    -1.955000000
O    -4.739000000     1.234000000     0.062000000
H    -4.800000000     1.942000000     0.704000000
H    -5.646000000     0.971000000    -0.091000000
O     3.191000000    -6.846000000    -0.446000000
H     2.539000000    -7.228000000     0.141000000
H     2.803000000    -6.019000000    -0.729000000
O     0.244000000     1.661000000     2.503000000
H     0.045000000     1.547000000     1.574000000
H     0.881000000     2.375000000     2.526000000
O    -4.965000000    -0.741000000    -1.798000000
H    -4.494000000    -0.191000000    -1.173000000
H    -5.575000000    -1.246000000    -1.261000000
O     5.091000000     2.067000000    -3.667000000
H     5.863000000     1.621000000    -4.017000000
H     4.398000000     1.408000000    -3.702000000
O     3.259000000     4.933000000     0.406000000
H     3.741000000     5.760000000     0.382000000
H     3.662000000     4.402000000    -0.280000000
O     3.783000000    -3.262000000     1.587000000
H     3.959000000    -2.392000000     1.229000000
H     2.834000000    -3.285000000     1.705000000
O    -2.757000000    -4.587000000    -1.708000000
H    -2.744000000    -4.141000000    -0.862000000
H    -2.761000000    -3.878000000    -2.352000000
O    -1.355000000     6.663000000    -3.603000000
H    -0.487000000     6.552000000    -3.992000000
H    -1.191000000     6.715000000    -2.662000000
O    -5.487000000    -4.880000000     0.920000000
H    -5.552000000    -5.539000000     1.611000000
H    -4.627000000    -4.480000000     1.050000000
O     2.619000000    -3.853000000    -0.960000000
H     3.523000000    -3.697000000    -1.235000000
H     2.626000000    -3.697000000    -0.016000000
O    -5.471000000     3.616000000     1.180000000
H    -5.170000000     4.219000000     0.502000000
H    -6.328000000     3.955000000     1.439000000
O     4.915000000     3.548000000    -1.166000000
H     5.078000000     3.048000000    -1.966000000
H     5.739000000     4.007000000    -0.999000000
O     0.344000000    -2.034000000     7.004000000
H     0.207000000    -2.867000000     6.553000000
H     0.445000000    -1.394000000     6.300000000
O     1.026000000     5.662000000    -1.034000000
H     1.199000000     6.591000000    -0.880000000
H     1.618000000     5.206000000    -0.437000000
O    -2.497000000     4.248000000     0.832000000
H    -2.223000000     5.035000000     1.303000000
H    -3.283000000     3.954000000     1.293000000
O    -0.115000000    -5.538000000     1.259000000
H     0.208000000    -5.708000000     0.374000000
H     0.420000000    -4.810000000     1.574000000
O     1.474000000    -5.010000000     4.118000000
H     1.065000000    -4.365000000     3.540000000
H     2.410000000    -4.813000000     4.071000000
O    -4.401000000    -5.455000000     4.282000000
H    -3.472000000    -5.265000000     4.152000000
H    -4.819000000    -4.594000000     4.317000000
O     4.634000000     1.977000000     1.212000000
H     4.726000000     1.101000000     0.837000000
H     4.754000000     2.569000000     0.470000000
O    -0.111000000    -4.945000000     6.434000000
H     0.148000000    -5.700000000     6.962000000
H     0.402000000    -5.026000000     5.631000000
O    -1.360000000     3.258000000    -6.233000000
H    -2.315000000     3.255000000    -6.298000000
H    -1.128000000     4.184000000    -6.163000000
O     3.186000000    -0.306000000    -4.324000000
H     3.086000000    -0.709000000    -3.461000000
H     2.322000000    -0.387000000    -4.727000000
O    -1.924000000    -7.656000000     1.020000000
H    -1.809000000    -8.211000000     1.791000000
H    -1.489000000    -6.835000000     1.250000000
O     5.313000000    -1.382000000     4.130000000
H     5.590000000    -1.940000000     4.856000000
H     4.361000000    -1.482000000     4.100000000
O     6.112000000    -0.945000000    -2.188000000
H     7.003000000    -0.706000000    -2.444000000
H     6.028000000    -1.864000000    -2.443000000
O     2.580000000     3.109000000     2.307000000
H     2.672000000     3.799000000     1.650000000
H     3.233000000     2.454000000     2.059000000
O     4.902000000    -0.846000000     0.538000000
H     5.714000000    -1.142000000     0.949000000
H     5.086000000    -0.874000000    -0.401000000
O     0.444000000    -0.183000000     4.563000000
H    -0.107000000     0.337000000     5.149000000
H     0.375000000     0.257000000     3.716000000
O    -3.312000000    -2.224000000     6.404000000
H    -3.545000000    -1.948000000     5.518000000
H    -3.279000000    -1.411000000     6.908000000
O    -1.543000000     6.808000000     1.330000000
H    -1.147000000     7.265000000     2.072000000
H    -0.898000000     6.886000000     0.627000000
O    -4.681000000     2.287000000    -3.001000000
H    -4.048000000     2.792000000    -2.490000000
H    -4.811000000     1.485000000    -2.496000000
O     0.355000000     0.744000000    -4.303000000
H     1.064000000     1.248000000    -3.904000000
H    -0.148000000     1.389000000    -4.800000000
