158
-3068.71924
C    -0.581000000    -1.137000000     0.790000000
H    -0.892000000    -1.852000000     1.547000000
C     0.784000000    -0.899000000     0.491000000
H     1.445000000    -1.602000000     0.991000000
C     1.222000000     0.152000000    -0.281000000
H     2.256000000     0.221000000    -0.465000000
C     0.257000000     1.064000000    -0.734000000
H     0.647000000     1.867000000    -1.355000000
C    -1.094000000     0.913000000    -0.429000000
H    -1.803000000     1.657000000    -0.784000000
C    -1.537000000    -0.218000000     0.269000000
C    -3.047000000    -0.430000000     0.543000000
O    -3.495000000    -1.379000000     1.164000000
O    -3.764000000     0.366000000    -0.023000000
O    -0.452000000    -4.406000000     1.752000000
H    -1.010000000    -4.409000000     0.974000000
H     0.437000000    -4.322000000     1.408000000
O    -3.876000000     4.323000000    -3.363000000
H    -3.787000000     3.487000000    -2.905000000
H    -4.108000000     4.082000000    -4.260000000
O    -2.286000000    -3.118000000     3.359000000
H    -3.053000000    -3.104000000     2.785000000
H    -1.618000000    -3.580000000     2.854000000
O     5.683000000    -2.758000000    -2.508000000
H     5.383000000    -2.828000000    -1.602000000
H     5.693000000    -3.660000000    -2.828000000
O     5.290000000     3.634000000     2.602000000
H     5.598000000     2.794000000     2.261000000
H     4.725000000     3.400000000     3.339000000
O    -5.824000000    -3.601000000     3.914000000
H    -6.677000000    -3.870000000     3.573000000
H    -5.330000000    -4.418000000     3.992000000
O    -0.653000000     4.125000000    -4.132000000
H    -1.517000000     4.407000000    -3.833000000
H    -0.136000000     4.048000000    -3.331000000
O    -3.613000000    -1.261000000    -2.602000000
H    -4.338000000    -1.267000000    -1.977000000
H    -4.009000000    -1.529000000    -3.431000000
O     3.567000000    -0.630000000    -2.979000000
H     4.223000000    -1.321000000    -2.886000000
H     3.876000000     0.073000000    -2.408000000
O    -5.915000000     4.726000000    -0.064000000
H    -5.169000000     4.299000000     0.358000000
H    -5.979000000     5.577000000     0.368000000
O    -4.783000000    -0.799000000     3.482000000
H    -4.958000000    -1.609000000     3.961000000
H    -4.309000000    -1.081000000     2.699000000
O    -4.542000000     2.401000000     1.532000000
H    -3.655000000     2.453000000     1.887000000
H    -4.607000000     1.514000000     1.177000000
O    -8.383000000    -2.369000000     1.643000000
H    -8.374000000    -3.201000000     2.116000000
H    -7.583000000    -2.383000000     1.118000000
O    -3.985000000    -6.243000000     3.101000000
H    -4.008000000    -6.024000000     2.170000000
H    -3.053000000    -6.268000000     3.319000000
O     2.738000000    -5.188000000    -1.752000000
H     2.679000000    -4.317000000    -2.145000000
H     2.060000000    -5.192000000    -1.076000000
O     1.914000000    -2.783000000    -2.633000000
H     2.289000000    -1.906000000    -2.552000000
H     0.980000000    -2.630000000    -2.780000000
O    -6.481000000     0.575000000    -0.649000000
H    -7.075000000     1.094000000    -0.107000000
H    -5.634000000     1.013000000    -0.563000000
O    -5.964000000     1.610000000     3.884000000
H    -5.659000000     0.712000000     3.754000000
H    -5.582000000     2.101000000     3.157000000
O     0.727000000     1.521000000    -5.179000000
H     0.043000000     1.972000000    -5.674000000
H     0.838000000     2.048000000    -4.388000000
O     0.440000000     3.631000000     3.126000000
H     0.958000000     4.306000000     2.689000000
H     0.745000000     2.808000000     2.744000000
O    -1.455000000    -6.688000000     3.129000000
H    -1.040000000    -7.441000000     2.707000000
H    -0.991000000    -5.930000000     2.774000000
O    -2.660000000     0.414000000     4.524000000
H    -2.260000000     1.045000000     3.926000000
H    -3.466000000     0.144000000     4.083000000
O     0.282000000    -4.748000000     4.762000000
H     0.159000000    -5.692000000     4.660000000
H     0.244000000    -4.404000000     3.869000000
O    -3.769000000    -5.600000000     0.106000000
H    -3.679000000    -6.291000000    -0.550000000
H    -3.088000000    -4.966000000    -0.119000000
O    -6.641000000    -4.821000000    -0.441000000
H    -6.504000000    -3.874000000    -0.418000000
H    -5.847000000    -5.187000000    -0.050000000
O     5.215000000     2.413000000    -2.364000000
H     5.335000000     2.359000000    -3.312000000
H     5.890000000     3.026000000    -2.072000000
O     3.925000000     5.097000000     0.915000000
H     4.313000000     4.573000000     1.617000000
H     3.095000000     5.406000000     1.278000000
O     6.240000000     1.169000000     2.064000000
H     5.903000000     0.462000000     2.614000000
H     7.013000000     0.795000000     1.640000000
O     2.084000000    -0.648000000     4.639000000
H     1.146000000    -0.831000000     4.592000000
H     2.143000000     0.170000000     5.132000000
O     1.846000000     1.268000000     2.348000000
H     1.549000000     0.927000000     1.505000000
H     1.783000000     0.521000000     2.944000000
O     3.222000000     4.229000000    -1.754000000
H     3.195000000     4.205000000    -0.797000000
H     3.672000000     3.421000000    -2.001000000
O    -6.605000000     2.328000000    -3.442000000
H    -6.690000000     2.082000000    -2.521000000
H    -5.848000000     1.831000000    -3.753000000
O     4.682000000     0.340000000    -0.183000000
H     4.939000000     0.598000000     0.701000000
H     4.825000000     1.124000000    -0.713000000
O    -3.710000000    -2.968000000     6.229000000
H    -3.588000000    -2.707000000     5.316000000
H    -3.018000000    -3.609000000     6.390000000
O     2.187000000     4.135000000    -4.957000000
H     2.562000000     4.652000000    -4.244000000
H     1.240000000     4.208000000    -4.832000000
O    -0.611000000    -1.852000000    -2.797000000
H    -0.843000000    -1.018000000    -2.389000000
H    -1.376000000    -2.082000000    -3.323000000
O    -3.806000000     1.633000000    -2.299000000
H    -3.918000000     1.196000000    -1.455000000
H    -3.563000000     0.931000000    -2.902000000
O     4.250000000    -2.456000000    -0.075000000
H     5.005000000    -2.477000000     0.514000000
H     4.039000000    -1.527000000    -0.160000000
O     4.872000000    -0.748000000     3.444000000
H     4.072000000    -1.049000000     3.876000000
H     5.486000000    -1.476000000     3.542000000
O    -2.229000000     2.933000000     2.950000000
H    -2.734000000     3.390000000     3.623000000
H    -1.334000000     3.252000000     3.065000000
O     2.902000000     0.097000000    -5.653000000
H     2.008000000     0.438000000    -5.668000000
H     3.097000000    -0.023000000    -4.723000000
O     4.670000000     1.734000000     4.737000000
H     4.597000000     0.895000000     4.283000000
H     4.029000000     1.679000000     5.446000000
O     2.397000000    -4.238000000     0.961000000
H     2.804000000    -3.985000000     1.790000000
H     2.942000000    -3.826000000     0.291000000
O    -0.587000000    -1.268000000     4.705000000
H    -0.881000000    -2.137000000     4.430000000
H    -1.378000000    -0.730000000     4.684000000
O    -2.060000000    -3.395000000    -0.447000000
H    -2.653000000    -2.707000000    -0.145000000
H    -1.417000000    -2.935000000    -0.987000000
O    -5.789000000    -1.956000000     0.039000000
H    -6.015000000    -1.052000000    -0.182000000
H    -4.962000000    -1.887000000     0.515000000
O     0.469000000     4.864000000    -1.840000000
H     0.121000000     5.430000000    -1.151000000
H     1.405000000     4.804000000    -1.649000000
O    -7.693000000     2.563000000     0.770000000
H    -7.022000000     3.107000000     0.356000000
H    -8.507000000     3.051000000     0.645000000
