158
-3016.20391
C    -1.229000000    -0.692000000    -0.453000000
H    -2.058000000    -1.307000000    -0.794000000
C     0.025000000    -1.027000000    -0.851000000
H     0.298000000    -1.852000000    -1.504000000
C     1.080000000    -0.244000000    -0.402000000
H     2.087000000    -0.481000000    -0.685000000
C     0.929000000     0.730000000     0.559000000
H     1.755000000     1.290000000     0.988000000
C    -0.347000000     1.108000000     0.863000000
H    -0.441000000     1.932000000     1.565000000
C    -1.507000000     0.433000000     0.364000000
C    -2.862000000     0.715000000     0.898000000
O    -3.875000000     0.121000000     0.435000000
O    -2.999000000     1.675000000     1.620000000
O     0.433000000    -4.628000000    -2.321000000
H    -0.407000000    -4.962000000    -2.637000000
H     0.957000000    -4.514000000    -3.114000000
O    -4.156000000    -2.730000000     1.114000000
H    -3.798000000    -1.933000000     1.505000000
H    -3.394000000    -3.182000000     0.752000000
O     5.922000000    -2.584000000    -4.764000000
H     6.072000000    -1.674000000    -4.507000000
H     6.272000000    -3.099000000    -4.038000000
O     1.683000000    -3.410000000    -4.578000000
H     1.881000000    -2.799000000    -3.868000000
H     1.044000000    -2.948000000    -5.120000000
O    -5.537000000     0.894000000     2.572000000
H    -5.946000000     0.080000000     2.280000000
H    -4.830000000     1.046000000     1.945000000
O     5.170000000    -1.321000000    -1.512000000
H     6.094000000    -1.100000000    -1.628000000
H     5.148000000    -1.841000000    -0.709000000
O    -3.871000000     0.594000000    -3.663000000
H    -4.133000000     1.322000000    -4.227000000
H    -3.457000000    -0.032000000    -4.258000000
O     0.075000000     1.185000000    -3.083000000
H     0.153000000     0.789000000    -2.216000000
H    -0.665000000     1.787000000    -3.007000000
O     5.350000000    -2.582000000     0.853000000
H     5.335000000    -3.376000000     0.319000000
H     5.572000000    -2.890000000     1.732000000
O    -4.589000000     3.837000000     0.462000000
H    -4.996000000     3.179000000    -0.100000000
H    -3.971000000     3.343000000     1.001000000
O     4.415000000     5.134000000    -1.655000000
H     4.296000000     5.148000000    -2.605000000
H     3.906000000     4.379000000    -1.361000000
O     0.474000000     6.312000000     0.152000000
H     0.722000000     6.347000000    -0.772000000
H     1.111000000     6.874000000     0.592000000
O     3.369000000     0.759000000    -4.410000000
H     2.543000000     1.221000000    -4.267000000
H     3.509000000     0.805000000    -5.356000000
O    -5.551000000     1.053000000     5.814000000
H    -4.683000000     0.747000000     6.076000000
H    -5.540000000     1.013000000     4.857000000
O    -4.910000000     5.857000000    -1.135000000
H    -4.813000000     5.011000000    -0.698000000
H    -4.051000000     6.028000000    -1.520000000
O    -8.643000000    -0.476000000     2.215000000
H    -8.210000000    -0.683000000     1.387000000
H    -8.498000000    -1.248000000     2.762000000
O    -7.017000000    -2.034000000     0.773000000
H    -6.109000000    -2.275000000     0.959000000
H    -7.030000000    -1.861000000    -0.168000000
O    -1.194000000    -0.604000000    -4.853000000
H    -1.671000000    -1.171000000    -4.247000000
H    -0.544000000    -0.162000000    -4.307000000
O     6.172000000     0.960000000    -3.753000000
H     5.229000000     0.813000000    -3.672000000
H     6.500000000     0.914000000    -2.855000000
O    -1.562000000     2.480000000     3.792000000
H    -1.450000000     3.430000000     3.750000000
H    -2.016000000     2.256000000     2.980000000
O     1.714000000    -1.462000000     2.935000000
H     1.547000000    -1.018000000     2.104000000
H     1.931000000    -0.756000000     3.545000000
O     1.536000000     1.070000000     4.448000000
H     2.267000000     1.164000000     5.058000000
H     0.838000000     1.604000000     4.827000000
O    -2.088000000    -4.022000000    -0.338000000
H    -2.621000000    -4.785000000    -0.561000000
H    -2.140000000    -3.459000000    -1.109000000
O    -2.046000000     0.473000000     5.551000000
H    -2.446000000     0.985000000     6.254000000
H    -1.827000000     1.119000000     4.879000000
O     5.297000000    -3.021000000     3.614000000
H     5.657000000    -2.634000000     4.412000000
H     4.529000000    -3.511000000     3.910000000
O     1.563000000    -4.387000000     2.919000000
H     2.040000000    -4.605000000     2.118000000
H     1.577000000    -3.430000000     2.953000000
O     0.108000000    -2.377000000    -6.694000000
H    -0.534000000    -2.113000000    -6.035000000
H     0.359000000    -1.560000000    -7.125000000
O    -6.165000000    -3.887000000    -1.780000000
H    -5.870000000    -2.977000000    -1.813000000
H    -6.647000000    -4.013000000    -2.597000000
O    -7.834000000    -1.380000000    -2.171000000
H    -6.887000000    -1.254000000    -2.115000000
H    -8.136000000    -0.679000000    -2.748000000
O     6.713000000     2.124000000    -0.140000000
H     6.378000000     2.660000000    -0.859000000
H     6.979000000     2.757000000     0.526000000
O    -7.249000000     2.743000000     3.581000000
H    -6.862000000     1.922000000     3.278000000
H    -6.951000000     2.829000000     4.487000000
O     2.209000000     3.319000000     2.559000000
H     3.107000000     3.004000000     2.456000000
H     1.726000000     2.560000000     2.885000000
O     2.020000000     6.054000000     3.106000000
H     2.201000000     6.739000000     2.463000000
H     2.106000000     5.236000000     2.616000000
O     6.339000000     0.103000000     2.673000000
H     6.113000000    -0.797000000     2.440000000
H     7.281000000     0.162000000     2.514000000
O     4.719000000     2.132000000     1.922000000
H     5.285000000     1.382000000     2.105000000
H     5.301000000     2.780000000     1.524000000
O     2.844000000    -1.426000000    -2.820000000
H     3.523000000    -1.430000000    -2.145000000
H     2.996000000    -0.616000000    -3.307000000
O     4.206000000    -4.245000000    -1.374000000
H     4.629000000    -5.099000000    -1.468000000
H     4.771000000    -3.644000000    -1.859000000
O    -2.149000000     2.572000000    -2.438000000
H    -2.516000000     2.727000000    -1.567000000
H    -2.760000000     1.960000000    -2.849000000
O     3.396000000     2.865000000    -0.340000000
H     3.913000000     2.464000000     0.358000000
H     2.683000000     3.311000000     0.116000000
O     8.086000000     0.061000000    -1.259000000
H     7.701000000     0.854000000    -0.887000000
H     8.801000000    -0.162000000    -0.663000000
O    -0.644000000     5.519000000     2.917000000
H     0.264000000     5.738000000     3.128000000
H    -0.644000000     5.382000000     1.970000000
O    -2.854000000    -2.734000000    -3.286000000
H    -3.154000000    -2.779000000    -4.194000000
H    -3.612000000    -2.413000000    -2.798000000
O     3.984000000    -3.751000000    -6.091000000
H     3.170000000    -3.768000000    -5.588000000
H     4.589000000    -3.244000000    -5.549000000
O     1.934000000    -4.911000000     0.045000000
H     2.684000000    -4.409000000    -0.275000000
H     1.270000000    -4.810000000    -0.637000000
O    -2.157000000    -1.787000000     3.510000000
H    -1.957000000    -1.067000000     2.911000000
H    -2.226000000    -1.370000000     4.369000000
O    -5.105000000    -0.890000000    -1.716000000
H    -4.576000000    -0.536000000    -1.001000000
H    -4.780000000    -0.443000000    -2.498000000
O    -6.067000000     1.998000000    -0.695000000
H    -6.556000000     1.699000000    -1.461000000
H    -5.481000000     1.270000000    -0.485000000
O    -0.948000000    -5.151000000     2.107000000
H    -1.143000000    -4.807000000     1.235000000
H    -0.177000000    -4.659000000     2.391000000
