158
-3048.40166
C     1.404000000    -0.321000000     0.283000000
H     2.430000000    -0.665000000     0.386000000
C     0.872000000    -0.275000000    -0.981000000
H     1.536000000    -0.382000000    -1.835000000
C    -0.460000000    -0.006000000    -1.131000000
H    -0.911000000    -0.075000000    -2.074000000
C    -1.242000000     0.373000000    -0.020000000
H    -2.305000000     0.509000000    -0.203000000
C    -0.721000000     0.391000000     1.241000000
H    -1.312000000     0.744000000     2.082000000
C     0.591000000    -0.093000000     1.467000000
C     1.200000000    -0.257000000     2.852000000
O     0.506000000     0.011000000     3.830000000
O     2.413000000    -0.446000000     3.025000000
O     1.295000000     2.055000000    -6.977000000
H     0.364000000     1.989000000    -7.185000000
H     1.615000000     2.767000000    -7.531000000
O     4.103000000     1.480000000     3.626000000
H     3.520000000     0.742000000     3.450000000
H     3.571000000     2.254000000     3.442000000
O     5.599000000    -4.485000000     0.810000000
H     4.954000000    -3.796000000     0.972000000
H     5.321000000    -5.210000000     1.371000000
O     3.966000000     2.410000000    -2.558000000
H     3.119000000     2.396000000    -3.004000000
H     3.778000000     2.793000000    -1.701000000
O    -1.449000000     4.591000000    -4.734000000
H    -1.590000000     3.709000000    -5.079000000
H    -1.132000000     5.093000000    -5.485000000
O     6.219000000     0.740000000     1.822000000
H     5.594000000     0.908000000     2.527000000
H     7.033000000     1.146000000     2.122000000
O    -0.535000000    -2.870000000    -3.522000000
H    -0.415000000    -3.440000000    -4.282000000
H     0.283000000    -2.377000000    -3.461000000
O     1.648000000     2.711000000    -4.188000000
H     1.527000000     3.633000000    -4.415000000
H     1.271000000     2.231000000    -4.926000000
O     1.001000000    -4.862000000     1.475000000
H     0.929000000    -5.156000000     2.383000000
H     0.284000000    -4.236000000     1.369000000
O    -2.326000000    -1.371000000     7.907000000
H    -2.971000000    -1.961000000     7.516000000
H    -1.961000000    -0.891000000     7.164000000
O    -1.480000000     1.896000000     7.253000000
H    -0.786000000     1.242000000     7.331000000
H    -1.313000000     2.509000000     7.968000000
O     0.798000000    -3.766000000     6.877000000
H     1.287000000    -4.010000000     6.091000000
H     0.553000000    -2.852000000     6.732000000
O    -4.355000000     1.004000000    -3.099000000
H    -3.632000000     0.523000000    -3.500000000
H    -5.088000000     0.389000000    -3.111000000
O    -5.036000000    -0.490000000     5.212000000
H    -4.111000000    -0.421000000     4.975000000
H    -5.028000000    -0.709000000     6.144000000
O     0.072000000     4.160000000     2.560000000
H     0.265000000     5.094000000     2.638000000
H    -0.871000000     4.123000000     2.399000000
O     5.963000000     2.362000000    -0.518000000
H     5.918000000     1.835000000     0.279000000
H     5.171000000     2.899000000    -0.496000000
O    -4.633000000     3.446000000    -4.623000000
H    -3.817000000     3.917000000    -4.454000000
H    -4.806000000     2.968000000    -3.812000000
O    -2.554000000    -3.450000000    -1.703000000
H    -2.593000000    -4.312000000    -1.290000000
H    -1.852000000    -3.525000000    -2.349000000
O    -2.228000000    -0.643000000     4.537000000
H    -2.521000000    -0.588000000     3.627000000
H    -1.377000000    -0.205000000     4.542000000
O     2.384000000    -3.811000000     4.689000000
H     2.850000000    -3.074000000     5.085000000
H     2.955000000    -4.565000000     4.841000000
O    -2.499000000     4.162000000     1.327000000
H    -2.930000000     4.604000000     0.596000000
H    -3.215000000     3.762000000     1.821000000
O     2.364000000    -4.474000000    -2.498000000
H     2.730000000    -3.627000000    -2.753000000
H     3.096000000    -4.938000000    -2.092000000
O    -2.461000000    -0.704000000    -4.250000000
H    -1.913000000    -1.386000000    -3.862000000
H    -1.921000000    -0.330000000    -4.946000000
O     0.553000000    -0.394000000     6.327000000
H     0.699000000    -0.372000000     5.381000000
H     1.414000000    -0.591000000     6.697000000
O    -3.701000000    -0.364000000     2.095000000
H    -4.596000000    -0.049000000     2.224000000
H    -3.636000000    -0.520000000     1.153000000
O     6.346000000    -3.098000000    -1.735000000
H     6.365000000    -3.607000000    -0.924000000
H     5.562000000    -2.555000000    -1.658000000
O     3.489000000     3.710000000    -0.154000000
H     3.463000000     4.603000000    -0.496000000
H     2.580000000     3.516000000     0.077000000
O     2.190000000     4.273000000     6.412000000
H     1.918000000     3.587000000     5.802000000
H     2.803000000     4.810000000     5.911000000
O     3.373000000    -1.505000000     5.383000000
H     3.632000000    -0.715000000     5.858000000
H     3.045000000    -1.183000000     4.544000000
O    -0.644000000    -2.775000000     0.207000000
H    -0.375000000    -1.951000000    -0.199000000
H    -1.303000000    -3.132000000    -0.387000000
O    -0.880000000    -1.677000000    -7.699000000
H    -1.024000000    -2.434000000    -7.131000000
H    -1.654000000    -1.130000000    -7.568000000
O    -0.319000000    -3.325000000     4.183000000
H     0.594000000    -3.096000000     4.360000000
H    -0.812000000    -2.538000000     4.415000000
O     1.519000000     2.660000000     4.164000000
H     0.827000000     3.253000000     3.872000000
H     1.126000000     1.789000000     4.112000000
O    -1.872000000     2.107000000    -5.879000000
H    -1.856000000     2.082000000    -6.836000000
H    -2.777000000     1.897000000    -5.649000000
O    -4.066000000    -3.384000000    -5.578000000
H    -3.834000000    -4.020000000    -4.900000000
H    -4.268000000    -2.583000000    -5.095000000
O    -2.729000000     3.230000000     5.275000000
H    -2.380000000     2.672000000     4.579000000
H    -2.234000000     2.978000000     6.055000000
O    -2.425000000    -3.616000000     2.066000000
H    -2.082000000    -3.397000000     2.933000000
H    -2.057000000    -2.949000000     1.487000000
O    -4.467000000    -1.938000000    -0.397000000
H    -4.532000000    -2.641000000     0.249000000
H    -3.717000000    -2.181000000    -0.940000000
O     3.850000000     1.252000000    -5.557000000
H     3.240000000     1.675000000    -4.953000000
H     4.181000000     1.965000000    -6.103000000
O     4.950000000    -0.978000000    -0.043000000
H     5.285000000    -0.444000000     0.677000000
H     4.616000000    -1.769000000     0.380000000
O    -5.092000000     3.208000000    -0.819000000
H    -4.905000000     2.349000000    -1.197000000
H    -5.650000000     3.021000000    -0.064000000
O     0.408000000     3.282000000     0.056000000
H     0.095000000     2.404000000    -0.161000000
H     0.104000000     3.432000000     0.951000000
O     3.282000000     1.186000000     6.396000000
H     2.431000000     1.504000000     6.697000000
H     3.475000000     1.714000000     5.622000000
O    -5.749000000     0.387000000    -0.078000000
H    -6.506000000     0.625000000    -0.614000000
H    -5.208000000    -0.153000000    -0.653000000
O     4.402000000    -2.226000000     2.311000000
H     4.570000000    -2.520000000     3.206000000
H     3.749000000    -1.533000000     2.405000000
O    -6.178000000    -1.131000000    -2.847000000
H    -7.115000000    -1.328000000    -2.867000000
H    -5.758000000    -1.979000000    -2.706000000
O     2.100000000    -1.717000000    -4.074000000
H     2.801000000    -1.273000000    -3.597000000
H     2.046000000    -1.251000000    -4.908000000
O     4.082000000    -0.373000000    -2.503000000
H     4.514000000    -0.508000000    -1.660000000
H     4.066000000     0.577000000    -2.615000000
