158
-3037.19731
C    -0.972000000     0.672000000    -0.896000000
H    -1.515000000     1.283000000    -1.613000000
C     0.145000000    -0.048000000    -1.301000000
H     0.455000000    -0.163000000    -2.336000000
C     0.928000000    -0.664000000    -0.355000000
H     1.789000000    -1.235000000    -0.630000000
C     0.681000000    -0.464000000     0.999000000
H     1.297000000    -0.935000000     1.760000000
C    -0.306000000     0.375000000     1.397000000
H    -0.449000000     0.406000000     2.474000000
C    -1.228000000     0.894000000     0.470000000
C    -2.416000000     1.658000000     0.826000000
O    -3.162000000     2.059000000    -0.036000000
O    -2.652000000     1.795000000     2.027000000
O    -5.870000000     3.527000000     0.058000000
H    -6.249000000     2.656000000     0.181000000
H    -4.957000000     3.359000000    -0.175000000
O     2.421000000     2.943000000    -3.950000000
H     2.172000000     2.128000000    -4.387000000
H     2.308000000     3.617000000    -4.620000000
O    -2.054000000    -0.064000000    -4.211000000
H    -1.597000000    -0.053000000    -5.052000000
H    -2.439000000     0.809000000    -4.136000000
O    -2.498000000     0.560000000     7.300000000
H    -3.122000000     1.227000000     7.014000000
H    -1.695000000     0.762000000     6.819000000
O     6.306000000     0.669000000    -1.601000000
H     5.353000000     0.726000000    -1.661000000
H     6.597000000     0.552000000    -2.505000000
O     1.975000000     2.184000000     0.365000000
H     1.221000000     1.628000000     0.562000000
H     1.620000000     3.072000000     0.350000000
O    -0.110000000     4.569000000     0.788000000
H     0.170000000     5.057000000     0.014000000
H    -0.990000000     4.897000000     0.973000000
O     0.850000000    -2.425000000    -6.181000000
H     0.280000000    -3.012000000    -6.679000000
H     0.998000000    -2.882000000    -5.353000000
O     1.424000000     5.132000000    -1.567000000
H     2.279000000     5.387000000    -1.221000000
H     1.582000000     4.293000000    -2.000000000
O    -5.280000000    -0.966000000    -2.583000000
H    -4.562000000    -1.570000000    -2.394000000
H    -5.951000000    -1.181000000    -1.934000000
O    -1.627000000     4.855000000     4.067000000
H    -1.937000000     5.161000000     3.215000000
H    -0.772000000     5.272000000     4.175000000
O    -6.655000000     4.891000000     2.720000000
H    -6.394000000     4.326000000     1.993000000
H    -5.911000000     4.864000000     3.322000000
O     6.379000000    -4.146000000     0.317000000
H     5.818000000    -4.832000000    -0.045000000
H     6.633000000    -4.475000000     1.180000000
O     2.228000000    -4.127000000     3.478000000
H     2.884000000    -3.576000000     3.052000000
H     1.696000000    -3.516000000     3.988000000
O     0.268000000    -4.404000000    -4.110000000
H    -0.610000000    -4.087000000    -4.318000000
H     0.259000000    -4.530000000    -3.161000000
O     3.585000000    -3.998000000    -1.896000000
H     3.960000000    -4.771000000    -1.475000000
H     3.461000000    -4.259000000    -2.809000000
O    -6.825000000     0.638000000     1.121000000
H    -6.407000000     1.144000000     1.818000000
H    -7.702000000     1.013000000     1.046000000
O    -4.604000000     0.066000000     4.307000000
H    -3.818000000     0.504000000     3.979000000
H    -5.213000000     0.779000000     4.499000000
O     0.463000000    -2.282000000     4.694000000
H     0.875000000    -1.659000000     5.293000000
H    -0.319000000    -2.580000000     5.159000000
O    -1.349000000     2.047000000     4.307000000
H    -1.754000000     1.676000000     3.523000000
H    -1.611000000     2.968000000     4.298000000
O     3.622000000    -4.588000000    -4.612000000
H     3.621000000    -3.711000000    -4.995000000
H     2.795000000    -4.975000000    -4.899000000
O    -0.923000000    -3.434000000     1.229000000
H    -0.718000000    -2.613000000     1.678000000
H    -1.831000000    -3.618000000     1.470000000
O    -2.425000000     3.883000000    -2.019000000
H    -2.680000000     3.442000000    -1.208000000
H    -2.729000000     3.300000000    -2.715000000
O     7.617000000    -1.374000000     0.115000000
H     7.506000000    -0.754000000    -0.606000000
H     6.974000000    -2.061000000    -0.059000000
O    -5.283000000     2.242000000     2.886000000
H    -4.483000000     1.845000000     2.541000000
H    -4.973000000     2.895000000     3.515000000
O    -6.570000000     2.944000000    -3.485000000
H    -6.134000000     3.572000000    -4.061000000
H    -5.859000000     2.412000000    -3.129000000
O    -3.759000000    -2.623000000     4.624000000
H    -4.130000000    -1.766000000     4.414000000
H    -4.109000000    -2.829000000     5.491000000
O    -0.959000000     6.097000000    -2.539000000
H    -1.399000000     5.274000000    -2.326000000
H    -0.026000000     5.896000000    -2.462000000
O     1.164000000     4.890000000     3.489000000
H     0.635000000     4.826000000     2.694000000
H     1.742000000     5.637000000     3.333000000
O     0.329000000    -5.718000000     2.105000000
H    -0.130000000    -4.994000000     1.680000000
H     1.105000000    -5.314000000     2.495000000
O    -4.339000000     6.042000000    -3.151000000
H    -3.476000000     5.628000000    -3.157000000
H    -4.477000000     6.294000000    -2.238000000
O    -4.828000000     4.157000000     4.719000000
H    -4.512000000     5.003000000     5.038000000
H    -5.125000000     3.700000000     5.506000000
O     3.397000000    -1.498000000    -3.732000000
H     3.979000000    -1.254000000    -3.012000000
H     2.818000000    -2.161000000    -3.356000000
O     1.135000000     2.718000000     5.250000000
H     1.222000000     3.495000000     4.697000000
H     0.259000000     2.384000000     5.058000000
O     0.166000000    -4.146000000    -1.290000000
H     1.021000000    -3.717000000    -1.266000000
H    -0.217000000    -3.965000000    -0.432000000
O     1.773000000     0.524000000    -4.917000000
H     1.108000000    -0.079000000    -5.248000000
H     2.285000000     0.002000000    -4.300000000
O    -2.300000000    -1.903000000    -2.181000000
H    -2.415000000    -1.443000000    -3.012000000
H    -1.625000000    -1.404000000    -1.722000000
O    -0.502000000    -6.859000000    -1.175000000
H     0.249000000    -7.214000000    -0.699000000
H    -0.265000000    -5.948000000    -1.351000000
O    -4.089000000     1.458000000    -5.898000000
H    -3.982000000     1.186000000    -6.810000000
H    -3.516000000     2.219000000    -5.807000000
O     3.623000000     1.256000000    -1.832000000
H     3.294000000     1.645000000    -1.022000000
H     3.060000000     1.617000000    -2.517000000
O    -0.632000000     0.542000000    -6.424000000
H    -0.895000000     1.408000000    -6.736000000
H    -0.461000000     0.041000000    -7.222000000
O    -4.457000000     1.688000000    -2.325000000
H    -3.967000000     1.742000000    -1.505000000
H    -4.515000000     0.750000000    -2.509000000
O     3.627000000     0.474000000     2.399000000
H     2.881000000     0.996000000     2.103000000
H     3.947000000     0.931000000     3.176000000
O     6.405000000     1.532000000     1.345000000
H     5.626000000     1.075000000     1.663000000
H     6.433000000     1.334000000     0.409000000
O    -7.257000000     5.760000000    -0.302000000
H    -6.662000000     5.020000000    -0.181000000
H    -8.104000000     5.440000000     0.010000000
O    -2.545000000     5.273000000     1.392000000
H    -3.391000000     5.624000000     1.667000000
H    -2.700000000     4.336000000     1.277000000
O     3.848000000    -2.326000000     2.080000000
H     4.270000000    -2.095000000     1.252000000
H     3.656000000    -1.484000000     2.494000000
O     4.772000000    -1.677000000    -0.295000000
H     4.913000000    -2.527000000    -0.712000000
H     3.826000000    -1.540000000    -0.344000000
