158
-3025.12344
C     0.266000000     0.418000000    -1.379000000
H     0.528000000     0.697000000    -2.397000000
C     1.197000000    -0.110000000    -0.489000000
H     2.206000000    -0.230000000    -0.876000000
C     0.834000000    -0.490000000     0.736000000
H     1.623000000    -0.826000000     1.456000000
C    -0.432000000    -0.285000000     1.216000000
H    -0.687000000    -0.481000000     2.254000000
C    -1.352000000     0.288000000     0.377000000
H    -2.374000000     0.517000000     0.668000000
C    -0.998000000     0.672000000    -0.927000000
C    -1.986000000     1.273000000    -1.876000000
O    -1.647000000     2.029000000    -2.717000000
O    -3.164000000     1.044000000    -1.657000000
O    -4.327000000    -0.554000000    -3.867000000
H    -4.382000000     0.229000000    -3.319000000
H    -3.420000000    -0.847000000    -3.776000000
O     2.689000000     1.321000000     2.742000000
H     2.258000000     2.012000000     2.240000000
H     2.623000000     1.609000000     3.652000000
O     3.669000000     3.281000000    -1.406000000
H     4.294000000     3.939000000    -1.710000000
H     3.048000000     3.771000000    -0.867000000
O     2.955000000    -4.836000000     3.378000000
H     2.731000000    -4.356000000     4.175000000
H     2.168000000    -5.342000000     3.174000000
O     0.477000000     3.087000000     0.854000000
H    -0.441000000     3.325000000     0.725000000
H     0.497000000     2.138000000     0.734000000
O    -5.257000000    -3.109000000    -2.681000000
H    -6.145000000    -2.795000000    -2.511000000
H    -4.828000000    -2.381000000    -3.131000000
O     5.846000000    -2.713000000     5.039000000
H     5.883000000    -3.245000000     4.244000000
H     4.976000000    -2.314000000     5.019000000
O     1.699000000    -0.013000000     6.990000000
H     2.537000000     0.436000000     6.875000000
H     1.048000000     0.604000000     6.656000000
O     5.660000000    -5.270000000     2.331000000
H     5.872000000    -4.898000000     1.475000000
H     4.727000000    -5.091000000     2.447000000
O     2.506000000     2.855000000    -4.317000000
H     3.129000000     3.180000000    -3.667000000
H     1.678000000     3.278000000    -4.087000000
O    -4.293000000    -1.566000000     1.802000000
H    -3.630000000    -1.986000000     1.253000000
H    -4.371000000    -0.680000000     1.448000000
O     6.079000000     1.726000000    -3.621000000
H     5.780000000     1.987000000    -4.492000000
H     5.375000000     1.173000000    -3.282000000
O    -0.594000000    -6.074000000    -1.498000000
H    -0.756000000    -5.248000000    -1.954000000
H    -0.566000000    -5.835000000    -0.572000000
O     5.086000000    -1.568000000    -3.042000000
H     4.809000000    -0.652000000    -3.034000000
H     4.773000000    -1.920000000    -2.209000000
O    -7.061000000     0.812000000    -1.966000000
H    -6.953000000     1.351000000    -2.750000000
H    -7.024000000     1.434000000    -1.240000000
O     3.828000000    -0.995000000     4.157000000
H     3.217000000    -0.351000000     3.801000000
H     4.691000000    -0.597000000     4.039000000
O    -2.314000000     3.837000000     0.403000000
H    -2.100000000     4.735000000     0.149000000
H    -2.993000000     3.569000000    -0.216000000
O     1.234000000     6.134000000    -2.493000000
H     0.793000000     5.423000000    -2.958000000
H     1.267000000     5.841000000    -1.582000000
O     1.950000000    -3.836000000     5.505000000
H     1.292000000    -4.329000000     5.995000000
H     2.000000000    -2.992000000     5.954000000
O    -2.923000000     2.191000000     4.968000000
H    -2.401000000     2.382000000     4.189000000
H    -3.664000000     1.682000000     4.641000000
O    -1.659000000    -1.569000000    -4.701000000
H    -1.305000000    -0.682000000    -4.628000000
H    -1.258000000    -1.922000000    -5.495000000
O    -2.249000000     4.370000000    -4.925000000
H    -2.393000000     3.481000000    -4.601000000
H    -2.970000000     4.880000000    -4.555000000
O     0.026000000     3.913000000    -3.548000000
H    -0.526000000     3.345000000    -3.010000000
H    -0.485000000     4.057000000    -4.345000000
O    -4.262000000     3.418000000    -1.648000000
H    -4.062000000     4.043000000    -2.346000000
H    -3.771000000     2.631000000    -1.883000000
O     4.545000000    -3.917000000    -1.754000000
H     4.664000000    -4.468000000    -2.528000000
H     3.743000000    -3.425000000    -1.931000000
O    -4.778000000     0.816000000     0.233000000
H    -4.139000000     0.738000000    -0.476000000
H    -5.345000000     1.539000000    -0.034000000
O    -0.010000000    -4.813000000     1.845000000
H     0.147000000    -5.694000000     1.504000000
H     0.199000000    -4.233000000     1.113000000
O    -0.416000000     0.931000000    -4.859000000
H    -0.676000000     1.427000000    -4.082000000
H    -0.689000000     1.479000000    -5.595000000
O     3.602000000    -5.518000000     0.393000000
H     3.876000000    -5.083000000    -0.415000000
H     3.044000000    -4.877000000     0.833000000
O    -1.050000000    -3.805000000    -3.028000000
H    -1.696000000    -4.462000000    -3.288000000
H    -1.310000000    -3.014000000    -3.499000000
O     4.107000000    -2.731000000     2.244000000
H     3.624000000    -3.523000000     2.483000000
H     4.035000000    -2.166000000     3.013000000
O     4.585000000    -0.149000000     0.846000000
H     4.104000000     0.445000000     1.422000000
H     4.401000000    -1.022000000     1.195000000
O     0.254000000    -3.343000000    -0.422000000
H     0.072000000    -3.247000000    -1.357000000
H     0.717000000    -2.540000000    -0.184000000
O    -3.677000000    -2.154000000     4.625000000
H    -3.839000000    -1.837000000     3.737000000
H    -3.306000000    -1.401000000     5.084000000
O    -2.137000000    -0.391000000     5.743000000
H    -1.732000000     0.477000000     5.753000000
H    -1.867000000    -0.790000000     6.570000000
O     2.359000000    -2.643000000    -2.716000000
H     2.387000000    -3.296000000    -3.416000000
H     1.812000000    -1.940000000    -3.067000000
O     1.012000000    -2.240000000    -6.199000000
H     1.033000000    -3.160000000    -5.937000000
H     1.760000000    -1.845000000    -5.749000000
O     2.023000000    -0.181000000    -4.360000000
H     2.482000000     0.415000000    -3.768000000
H     1.375000000     0.369000000    -4.799000000
O    -2.578000000    -3.704000000     0.443000000
H    -1.682000000    -3.377000000     0.360000000
H    -2.642000000    -4.396000000    -0.216000000
O    -2.740000000    -4.920000000     4.662000000
H    -2.876000000    -3.974000000     4.594000000
H    -1.793000000    -5.019000000     4.766000000
O    -6.831000000     3.294000000    -0.304000000
H    -6.222000000     3.524000000    -1.006000000
H    -6.848000000     4.067000000     0.261000000
O    -4.509000000     2.859000000     2.115000000
H    -4.813000000     3.704000000     1.782000000
H    -4.023000000     2.475000000     1.386000000
O     7.481000000     0.100000000     0.023000000
H     7.889000000    -0.163000000     0.848000000
H     6.551000000     0.186000000     0.232000000
O    -6.646000000    -1.009000000     3.221000000
H    -7.218000000    -1.682000000     3.590000000
H    -6.061000000    -1.487000000     2.634000000
O    -5.160000000     1.016000000     4.134000000
H    -5.815000000     0.378000000     3.853000000
H    -4.933000000     1.494000000     3.336000000
O     4.308000000     0.683000000    -1.843000000
H     4.400000000     0.447000000    -0.920000000
H     3.990000000     1.586000000    -1.829000000
O     2.009000000     2.791000000    -6.997000000
H     2.327000000     2.756000000    -6.094000000
H     2.365000000     2.003000000    -7.406000000
O    -3.342000000     5.623000000    -2.995000000
H    -2.943000000     5.747000000    -2.134000000
H    -4.164000000     6.112000000    -2.951000000
