158
-3066.24935
C    -0.876000000     0.810000000    -0.896000000
H    -1.439000000     1.400000000    -1.615000000
C     0.041000000    -0.138000000    -1.312000000
H     0.085000000    -0.380000000    -2.371000000
C     0.806000000    -0.877000000    -0.353000000
H     1.320000000    -1.723000000    -0.755000000
C     0.771000000    -0.552000000     0.987000000
H     1.272000000    -1.185000000     1.715000000
C    -0.123000000     0.472000000     1.392000000
H    -0.169000000     0.609000000     2.470000000
C    -0.907000000     1.170000000     0.457000000
C    -1.850000000     2.322000000     0.815000000
O    -2.314000000     3.106000000    -0.033000000
O    -2.185000000     2.524000000     1.947000000
O    -4.759000000     4.105000000    -0.512000000
H    -5.153000000     3.956000000     0.348000000
H    -3.837000000     3.876000000    -0.396000000
O    -1.014000000     4.160000000    -3.458000000
H    -1.164000000     3.217000000    -3.532000000
H    -0.297000000     4.337000000    -4.067000000
O    -3.096000000     2.755000000     6.923000000
H    -2.818000000     3.174000000     6.108000000
H    -3.924000000     3.182000000     7.141000000
O     2.417000000     2.225000000     1.574000000
H     1.886000000     1.431000000     1.630000000
H     1.808000000     2.901000000     1.275000000
O    -1.821000000    -1.337000000    -3.421000000
H    -1.857000000    -1.319000000    -2.464000000
H    -1.052000000    -1.869000000    -3.622000000
O     0.743000000     4.269000000     1.068000000
H     0.541000000     5.011000000     0.498000000
H     0.344000000     4.495000000     1.908000000
O     2.480000000    -5.778000000     3.608000000
H     2.997000000    -5.656000000     4.404000000
H     2.447000000    -4.909000000     3.209000000
O    -1.065000000     0.282000000     5.862000000
H    -1.992000000     0.266000000     6.099000000
H    -0.939000000     1.134000000     5.444000000
O    -3.729000000     0.196000000     2.496000000
H    -3.968000000    -0.080000000     1.610000000
H    -3.111000000     0.915000000     2.364000000
O     0.686000000     5.095000000     4.992000000
H     0.149000000     5.134000000     4.200000000
H     1.349000000     5.773000000     4.865000000
O    -3.395000000     6.541000000     1.382000000
H    -4.199000000     7.005000000     1.616000000
H    -2.801000000     7.228000000     1.079000000
O    -7.169000000     4.532000000     2.551000000
H    -7.350000000     3.657000000     2.208000000
H    -6.215000000     4.571000000     2.616000000
O     3.666000000    -3.285000000     2.372000000
H     4.147000000    -2.831000000     1.680000000
H     3.388000000    -2.588000000     2.967000000
O    -0.245000000    -0.814000000    -6.395000000
H    -1.179000000    -0.831000000    -6.607000000
H    -0.206000000    -1.057000000    -5.470000000
O    -3.637000000     4.970000000    -4.336000000
H    -2.906000000     4.596000000    -3.843000000
H    -3.264000000     5.181000000    -5.192000000
O     2.542000000    -3.583000000    -2.761000000
H     2.556000000    -4.193000000    -2.024000000
H     3.301000000    -3.828000000    -3.290000000
O    -5.969000000     0.914000000     0.121000000
H    -6.170000000     1.524000000     0.831000000
H    -6.775000000     0.871000000    -0.394000000
O     3.093000000    -1.642000000     4.383000000
H     3.267000000    -0.773000000     4.745000000
H     2.169000000    -1.801000000     4.575000000
O    -1.005000000     2.356000000     4.309000000
H    -0.223000000     2.887000000     4.157000000
H    -1.277000000     2.075000000     3.435000000
O     0.551000000    -2.420000000     5.063000000
H     0.283000000    -1.856000000     5.789000000
H    -0.268000000    -2.653000000     4.626000000
O    -6.194000000     2.698000000     4.677000000
H    -5.437000000     3.151000000     4.305000000
H    -6.180000000     2.930000000     5.605000000
O    -0.923000000    -3.153000000    -0.171000000
H    -0.652000000    -2.235000000    -0.138000000
H    -0.841000000    -3.459000000     0.732000000
O    -1.140000000     5.675000000    -0.603000000
H    -1.822000000     5.084000000    -0.284000000
H    -0.709000000     5.187000000    -1.304000000
O    -4.491000000     4.225000000     2.528000000
H    -4.023000000     5.016000000     2.260000000
H    -3.841000000     3.527000000     2.457000000
O    -6.440000000     3.907000000    -2.597000000
H    -6.529000000     4.610000000    -3.242000000
H    -5.780000000     4.228000000    -1.983000000
O    -1.686000000    -1.438000000     3.918000000
H    -1.168000000    -0.870000000     4.488000000
H    -2.516000000    -1.550000000     4.382000000
O    -1.870000000     8.008000000    -1.851000000
H    -2.607000000     7.905000000    -2.453000000
H    -1.589000000     7.114000000    -1.662000000
O     0.398000000    -6.238000000     1.887000000
H    -0.050000000    -5.394000000     1.949000000
H     1.016000000    -6.235000000     2.618000000
O    -1.220000000    -3.925000000     2.497000000
H    -1.520000000    -3.142000000     2.959000000
H    -1.675000000    -4.647000000     2.930000000
O     4.326000000    -5.480000000     1.231000000
H     4.714000000    -6.149000000     1.795000000
H     4.140000000    -4.748000000     1.819000000
O    -4.116000000    -1.149000000     0.209000000
H    -4.877000000    -0.581000000     0.091000000
H    -3.448000000    -0.778000000    -0.366000000
O     1.430000000     1.228000000    -3.756000000
H     1.976000000     1.297000000    -2.973000000
H     2.048000000     1.284000000    -4.485000000
O    -2.988000000     5.137000000     5.121000000
H    -2.417000000     5.181000000     4.353000000
H    -3.704000000     5.740000000     4.922000000
O     0.108000000    -2.994000000    -4.370000000
H     0.926000000    -3.218000000    -3.925000000
H    -0.211000000    -3.828000000    -4.717000000
O    -1.325000000     1.502000000    -4.370000000
H    -1.566000000     0.575000000    -4.375000000
H    -0.371000000     1.501000000    -4.292000000
O     1.659000000    -6.736000000    -2.816000000
H     1.952000000    -6.477000000    -1.943000000
H     0.710000000    -6.827000000    -2.734000000
O     5.239000000    -1.194000000    -4.279000000
H     5.456000000    -0.263000000    -4.235000000
H     4.792000000    -1.296000000    -5.120000000
O    -0.956000000    -6.672000000    -2.534000000
H    -1.654000000    -6.954000000    -3.125000000
H    -1.225000000    -5.799000000    -2.246000000
O     2.052000000    -5.760000000    -0.456000000
H     1.278000000    -6.022000000     0.043000000
H     2.707000000    -5.552000000     0.211000000
O     3.102000000     1.694000000    -1.352000000
H     2.910000000     1.654000000    -0.416000000
H     3.443000000     0.824000000    -1.564000000
O    -3.893000000     0.890000000    -2.139000000
H    -3.377000000     1.474000000    -2.694000000
H    -4.394000000     1.478000000    -1.574000000
O    -0.929000000     7.949000000     0.917000000
H    -0.931000000     7.194000000     0.328000000
H    -1.382000000     8.636000000     0.427000000
O     6.703000000    -4.159000000     0.121000000
H     6.937000000    -4.501000000    -0.741000000
H     6.016000000    -4.747000000     0.435000000
O    -3.017000000    -1.228000000    -5.599000000
H    -3.671000000    -0.529000000    -5.583000000
H    -2.674000000    -1.255000000    -4.706000000
O    -1.414000000     4.884000000     2.771000000
H    -1.874000000     5.386000000     2.098000000
H    -1.499000000     3.972000000     2.490000000
O     4.896000000    -1.814000000     0.297000000
H     5.599000000    -2.357000000    -0.059000000
H     4.460000000    -1.451000000    -0.474000000
O     3.808000000    -1.103000000    -1.970000000
H     3.037000000    -1.579000000    -2.280000000
H     4.469000000    -1.252000000    -2.645000000
O    -5.554000000     6.536000000    -1.082000000
H    -6.410000000     6.705000000    -0.687000000
H    -5.276000000     5.703000000    -0.701000000
