158
-3016.30368
C    -0.144000000     0.946000000    -1.130000000
H    -0.170000000     1.713000000    -1.900000000
C     0.999000000     0.647000000    -0.441000000
H     1.896000000     1.143000000    -0.804000000
C     0.989000000    -0.334000000     0.588000000
H     1.854000000    -0.612000000     1.191000000
C    -0.188000000    -0.927000000     0.952000000
H    -0.254000000    -1.597000000     1.806000000
C    -1.319000000    -0.649000000     0.247000000
H    -2.206000000    -1.157000000     0.616000000
C    -1.307000000     0.318000000    -0.792000000
C    -2.540000000     0.679000000    -1.424000000
O    -2.552000000     1.602000000    -2.270000000
O    -3.588000000     0.210000000    -1.058000000
O    -4.653000000     2.193000000    -3.864000000
H    -4.756000000     2.979000000    -3.327000000
H    -3.964000000     1.693000000    -3.427000000
O    -6.191000000    -1.761000000     0.501000000
H    -6.153000000    -1.757000000     1.457000000
H    -6.281000000    -0.839000000     0.261000000
O     2.601000000     0.431000000     3.652000000
H     1.709000000     0.724000000     3.464000000
H     2.882000000     0.975000000     4.388000000
O     3.018000000     1.891000000    -3.459000000
H     2.537000000     1.967000000    -2.635000000
H     3.877000000     2.271000000    -3.272000000
O    -2.267000000    -3.033000000     3.055000000
H    -1.642000000    -2.468000000     3.510000000
H    -2.971000000    -3.172000000     3.688000000
O     2.853000000     2.223000000     5.763000000
H     3.563000000     2.817000000     5.519000000
H     2.054000000     2.719000000     5.585000000
O     0.128000000     1.433000000     2.658000000
H    -0.617000000     1.678000000     3.206000000
H    -0.267000000     1.048000000     1.875000000
O    -3.327000000    -2.572000000    -1.820000000
H    -3.455000000    -1.845000000    -1.210000000
H    -3.040000000    -3.300000000    -1.269000000
O     5.942000000    -4.107000000     3.159000000
H     6.221000000    -4.330000000     2.271000000
H     4.986000000    -4.130000000     3.123000000
O     3.792000000    -0.698000000    -1.147000000
H     4.375000000    -1.425000000    -0.927000000
H     2.915000000    -1.082000000    -1.131000000
O     0.875000000     3.694000000    -4.487000000
H     1.632000000     3.195000000    -4.179000000
H     0.473000000     4.036000000    -3.688000000
O    -2.442000000    -3.873000000     0.521000000
H    -2.522000000    -3.588000000     1.431000000
H    -3.147000000    -4.510000000     0.407000000
O    -5.622000000    -1.946000000     3.376000000
H    -5.541000000    -2.847000000     3.687000000
H    -5.793000000    -1.434000000     4.166000000
O    -2.327000000     4.277000000    -1.842000000
H    -2.620000000     3.471000000    -2.267000000
H    -2.886000000     4.357000000    -1.070000000
O     6.537000000    -4.251000000    -0.357000000
H     6.478000000    -5.201000000    -0.458000000
H     5.643000000    -3.939000000    -0.493000000
O    -3.523000000     1.348000000    -7.128000000
H    -3.149000000     1.370000000    -6.248000000
H    -3.234000000     0.510000000    -7.491000000
O     0.813000000    -5.610000000    -1.749000000
H     0.856000000    -4.662000000    -1.622000000
H     1.525000000    -5.802000000    -2.359000000
O     5.961000000     0.622000000    -2.665000000
H     5.319000000     0.059000000    -2.233000000
H     6.042000000     1.380000000    -2.086000000
O    -5.752000000    -0.114000000    -2.656000000
H    -5.804000000     0.788000000    -2.971000000
H    -4.936000000    -0.147000000    -2.156000000
O     2.309000000    -2.155000000     3.116000000
H     2.362000000    -1.201000000     3.170000000
H     1.422000000    -2.363000000     3.407000000
O    -1.407000000     6.445000000    -3.102000000
H    -0.724000000     6.897000000    -2.607000000
H    -1.720000000     5.761000000    -2.509000000
O     0.815000000    -5.527000000     2.113000000
H     0.523000000    -6.346000000     1.713000000
H     0.066000000    -5.235000000     2.634000000
O    -0.160000000    -2.452000000     4.724000000
H    -0.359000000    -3.296000000     5.129000000
H    -0.124000000    -1.837000000     5.457000000
O    -1.108000000    -2.809000000    -3.265000000
H    -0.756000000    -2.074000000    -3.767000000
H    -1.980000000    -2.519000000    -2.995000000
O    -1.723000000     1.631000000    -4.867000000
H    -1.877000000     1.688000000    -3.924000000
H    -1.184000000     2.395000000    -5.068000000
O     3.515000000    -4.297000000     5.629000000
H     3.279000000    -3.370000000     5.610000000
H     3.370000000    -4.563000000     6.537000000
O     0.203000000     4.053000000    -1.601000000
H     0.474000000     4.741000000    -0.993000000
H    -0.751000000     4.128000000    -1.638000000
O    -4.679000000     1.959000000     0.756000000
H    -5.518000000     1.538000000     0.945000000
H    -4.290000000     1.420000000     0.067000000
O    -0.276000000    -0.844000000    -4.897000000
H    -0.933000000    -0.170000000    -4.721000000
H    -0.269000000    -0.928000000    -5.850000000
O     4.055000000    -3.495000000    -1.026000000
H     3.545000000    -3.686000000    -1.813000000
H     3.421000000    -3.544000000    -0.311000000
O     5.278000000     3.006000000    -0.820000000
H     4.498000000     3.486000000    -0.541000000
H     5.747000000     3.620000000    -1.386000000
O     3.043000000    -4.112000000     1.389000000
H     2.520000000    -4.855000000     1.689000000
H     2.824000000    -3.405000000     1.996000000
O     5.062000000     0.590000000     2.697000000
H     4.111000000     0.496000000     2.658000000
H     5.338000000    -0.041000000     3.362000000
O     0.786000000    -2.363000000    -1.372000000
H    -0.005000000    -2.477000000    -1.899000000
H     0.517000000    -1.781000000    -0.661000000
O    -4.840000000     2.108000000     3.463000000
H    -4.524000000     1.884000000     2.587000000
H    -5.124000000     3.019000000     3.389000000
O     2.548000000    -3.184000000    -3.570000000
H     2.025000000    -2.977000000    -2.795000000
H     2.720000000    -2.334000000    -3.976000000
O     2.398000000    -0.435000000    -4.488000000
H     2.707000000     0.416000000    -4.178000000
H     1.446000000    -0.392000000    -4.397000000
O     6.089000000    -1.664000000     4.638000000
H     5.364000000    -1.405000000     5.207000000
H     5.892000000    -2.570000000     4.397000000
O     0.615000000     4.029000000     1.519000000
H    -0.289000000     4.321000000     1.402000000
H     0.546000000     3.086000000     1.664000000
O    -2.143000000    -6.210000000     3.118000000
H    -2.116000000    -5.253000000     3.091000000
H    -3.021000000    -6.433000000     2.810000000
O    -7.235000000     1.212000000     1.004000000
H    -7.847000000     0.832000000     0.374000000
H    -7.783000000     1.747000000     1.578000000
O    -6.746000000     2.122000000    -5.700000000
H    -7.338000000     2.032000000    -4.953000000
H    -5.892000000     2.302000000    -5.308000000
O     3.358000000    -1.592000000     6.007000000
H     3.421000000    -0.867000000     6.628000000
H     3.017000000    -1.193000000     5.206000000
O    -4.838000000    -3.249000000    -3.968000000
H    -4.377000000    -2.841000000    -3.235000000
H    -5.716000000    -3.426000000    -3.629000000
O     6.493000000     1.103000000     0.288000000
H     6.004000000     0.772000000     1.041000000
H     6.130000000     1.975000000     0.131000000
O     3.353000000     5.004000000    -0.339000000
H     3.621000000     5.007000000     0.580000000
H     2.539000000     5.508000000    -0.352000000
O    -4.439000000     4.577000000    -0.078000000
H    -4.524000000     3.704000000     0.305000000
H    -5.259000000     5.017000000     0.144000000
O    -5.427000000     4.472000000    -2.762000000
H    -5.028000000     4.534000000    -1.894000000
H    -4.808000000     4.915000000    -3.342000000
