158
-3029.59888
C     0.790000000     1.064000000    -0.503000000
H     1.467000000     1.882000000    -0.738000000
C     0.424000000     0.790000000     0.799000000
H     0.772000000     1.452000000     1.588000000
C    -0.340000000    -0.311000000     1.110000000
H    -0.611000000    -0.581000000     2.137000000
C    -0.827000000    -1.080000000     0.132000000
H    -1.413000000    -1.970000000     0.349000000
C    -0.417000000    -0.866000000    -1.176000000
H    -0.773000000    -1.529000000    -1.959000000
C     0.373000000     0.251000000    -1.478000000
C     0.780000000     0.592000000    -2.864000000
O     1.697000000     1.366000000    -3.099000000
O     0.246000000     0.021000000    -3.792000000
O     1.308000000     6.786000000    -2.938000000
H     1.966000000     6.856000000    -3.630000000
H     1.337000000     5.867000000    -2.672000000
O     1.902000000     0.971000000     6.244000000
H     2.383000000     1.374000000     6.966000000
H     1.714000000     0.083000000     6.547000000
O    -2.085000000     1.390000000     7.186000000
H    -2.865000000     1.715000000     6.737000000
H    -2.367000000     1.257000000     8.091000000
O    -3.300000000     0.464000000    -2.002000000
H    -3.729000000     1.313000000    -2.114000000
H    -3.657000000     0.122000000    -1.183000000
O     3.098000000     3.255000000    -4.919000000
H     2.680000000     3.540000000    -5.732000000
H     2.606000000     2.478000000    -4.656000000
O     2.335000000    -3.511000000     5.708000000
H     2.232000000    -2.977000000     4.921000000
H     1.769000000    -3.093000000     6.357000000
O     6.118000000     2.097000000    -3.082000000
H     5.726000000     2.744000000    -3.668000000
H     5.378000000     1.743000000    -2.588000000
O    -0.207000000     2.852000000     6.172000000
H     0.537000000     2.259000000     6.273000000
H    -0.949000000     2.370000000     6.536000000
O    -1.706000000     3.974000000     3.965000000
H    -1.242000000     3.733000000     4.767000000
H    -1.056000000     4.444000000     3.443000000
O    -2.765000000     0.538000000     3.289000000
H    -1.994000000     0.055000000     3.588000000
H    -2.457000000     1.438000000     3.183000000
O    -2.744000000     0.104000000    -4.541000000
H    -3.197000000     0.084000000    -3.698000000
H    -1.877000000     0.457000000    -4.338000000
O     2.402000000    -1.560000000    -7.558000000
H     2.822000000    -1.321000000    -6.731000000
H     2.189000000    -0.722000000    -7.968000000
O     0.155000000     5.111000000     2.048000000
H     0.901000000     4.520000000     1.946000000
H    -0.156000000     5.261000000     1.156000000
O    -0.473000000     3.941000000    -7.488000000
H    -0.141000000     3.328000000    -6.832000000
H     0.232000000     4.579000000    -7.597000000
O    -2.638000000     1.945000000     0.454000000
H    -1.817000000     1.894000000     0.944000000
H    -2.738000000     1.076000000     0.065000000
O    -3.703000000    -2.161000000    -5.816000000
H    -2.849000000    -2.434000000    -5.483000000
H    -3.761000000    -1.232000000    -5.595000000
O     0.748000000     1.876000000    -6.134000000
H     1.284000000     1.510000000    -6.838000000
H     0.896000000     1.292000000    -5.391000000
O     2.684000000     1.748000000     3.519000000
H     3.308000000     1.057000000     3.295000000
H     2.576000000     1.674000000     4.467000000
O    -0.864000000    -3.773000000     5.211000000
H    -0.841000000    -2.817000000     5.242000000
H    -1.030000000    -4.039000000     6.115000000
O     2.530000000     3.597000000     1.634000000
H     3.281000000     3.316000000     1.111000000
H     2.595000000     3.085000000     2.440000000
O    -5.551000000    -3.334000000     4.500000000
H    -5.367000000    -2.447000000     4.189000000
H    -6.201000000    -3.673000000     3.884000000
O     0.654000000    -3.139000000     1.819000000
H     0.032000000    -2.593000000     1.337000000
H     0.138000000    -3.893000000     2.104000000
O    -2.253000000     3.298000000    -4.140000000
H    -1.987000000     2.386000000    -4.022000000
H    -2.284000000     3.656000000    -3.253000000
O    -3.188000000    -4.576000000     0.827000000
H    -4.137000000    -4.464000000     0.769000000
H    -2.934000000    -4.920000000    -0.029000000
O     1.540000000    -1.606000000     3.724000000
H     1.146000000    -2.136000000     3.031000000
H     1.270000000    -0.710000000     3.523000000
O     4.705000000     1.305000000    -6.155000000
H     4.238000000     2.127000000    -6.004000000
H     4.710000000     1.204000000    -7.107000000
O     0.048000000    -1.171000000    -6.106000000
H     0.218000000    -0.768000000    -5.254000000
H     0.902000000    -1.498000000    -6.390000000
O    -2.664000000     0.336000000    -8.213000000
H    -1.997000000     0.889000000    -8.619000000
H    -2.353000000     0.204000000    -7.317000000
O     4.329000000    -0.622000000     0.210000000
H     4.171000000    -0.508000000     1.147000000
H     3.910000000    -1.455000000    -0.005000000
O    -4.120000000     4.158000000     0.725000000
H    -4.932000000     3.813000000     0.354000000
H    -3.572000000     3.385000000     0.860000000
O    -3.915000000    -0.926000000     0.162000000
H    -4.657000000    -1.504000000    -0.015000000
H    -3.631000000    -1.166000000     1.045000000
O     3.388000000     5.156000000    -1.056000000
H     2.590000000     4.648000000    -1.200000000
H     3.791000000     5.220000000    -1.921000000
O     2.986000000    -0.585000000    -5.014000000
H     3.516000000     0.183000000    -5.225000000
H     2.426000000    -0.299000000    -4.292000000
O     3.038000000    -3.485000000     0.142000000
H     2.829000000    -3.986000000    -0.646000000
H     2.187000000    -3.256000000     0.514000000
O    -1.488000000    -2.077000000    -8.323000000
H    -1.010000000    -1.993000000    -7.497000000
H    -2.087000000    -1.331000000    -8.329000000
O     5.002000000     3.267000000     0.428000000
H     4.729000000     3.857000000    -0.274000000
H     4.883000000     2.390000000     0.064000000
O    -1.206000000    -3.543000000    -5.211000000
H    -0.509000000    -2.896000000    -5.320000000
H    -0.935000000    -4.064000000    -4.456000000
O    -1.365000000    -1.346000000     6.968000000
H    -1.345000000    -0.393000000     7.058000000
H    -2.295000000    -1.571000000     7.016000000
O    -5.152000000     0.279000000     4.339000000
H    -4.473000000    -0.054000000     3.752000000
H    -4.715000000     0.961000000     4.849000000
O     1.378000000    -1.430000000     7.393000000
H     0.425000000    -1.461000000     7.305000000
H     1.545000000    -1.705000000     8.294000000
O    -3.195000000    -2.399000000     2.703000000
H    -3.573000000    -2.665000000     3.541000000
H    -3.193000000    -3.198000000     2.176000000
O     4.242000000    -0.703000000     3.142000000
H     3.539000000    -1.180000000     3.584000000
H     5.040000000    -0.982000000     3.590000000
O    -2.848000000    -4.579000000    -2.280000000
H    -2.114000000    -4.315000000    -2.834000000
H    -3.622000000    -4.445000000    -2.828000000
O     0.885000000     4.246000000    -2.208000000
H     0.053000000     4.013000000    -1.797000000
H     1.013000000     3.580000000    -2.883000000
O     3.926000000     1.244000000    -1.788000000
H     3.798000000     0.504000000    -1.194000000
H     3.088000000     1.333000000    -2.244000000
O    -0.939000000    -5.115000000     2.823000000
H    -1.147000000    -4.626000000     3.619000000
H    -1.743000000    -5.083000000     2.305000000
O    -0.341000000    -5.193000000    -3.235000000
H    -0.611000000    -6.045000000    -3.580000000
H     0.237000000    -5.404000000    -2.502000000
O    -1.573000000     3.906000000    -1.505000000
H    -1.573000000     4.749000000    -1.051000000
H    -1.884000000     3.281000000    -0.850000000
