158
-3028.30975
C     0.764000000     0.643000000    -1.118000000
H     1.364000000     1.085000000    -1.910000000
C     1.049000000     0.717000000     0.232000000
H     1.740000000     1.466000000     0.609000000
C     0.252000000     0.094000000     1.207000000
H     0.458000000     0.272000000     2.307000000
C    -0.809000000    -0.699000000     0.875000000
H    -1.486000000    -1.054000000     1.647000000
C    -1.012000000    -0.933000000    -0.531000000
H    -1.822000000    -1.553000000    -0.906000000
C    -0.221000000    -0.248000000    -1.517000000
C    -0.517000000    -0.434000000    -3.020000000
O     0.084000000     0.309000000    -3.808000000
O    -1.148000000    -1.377000000    -3.396000000
O     4.232000000    -1.754000000     0.609000000
H     3.396000000    -2.209000000     0.502000000
H     3.993000000    -0.892000000     0.949000000
O     0.734000000     2.964000000     3.018000000
H     1.593000000     2.650000000     3.301000000
H     0.855000000     3.196000000     2.097000000
O     0.733000000     0.263000000     7.301000000
H     0.062000000     0.630000000     6.726000000
H     1.472000000     0.866000000     7.223000000
O    -1.148000000    -1.898000000     6.291000000
H    -1.960000000    -1.429000000     6.098000000
H    -0.634000000    -1.282000000     6.814000000
O    -5.021000000    -1.966000000     3.847000000
H    -4.715000000    -1.663000000     4.702000000
H    -5.025000000    -1.179000000     3.302000000
O    -3.086000000     1.677000000     2.101000000
H    -2.403000000     1.864000000     1.457000000
H    -3.503000000     2.523000000     2.260000000
O    -0.327000000     5.186000000    -4.803000000
H     0.602000000     5.367000000    -4.945000000
H    -0.417000000     4.248000000    -4.974000000
O     2.868000000    -3.081000000     7.233000000
H     2.719000000    -3.868000000     7.757000000
H     2.464000000    -3.276000000     6.388000000
O    -1.817000000     3.609000000     3.832000000
H    -1.781000000     4.520000000     3.541000000
H    -1.027000000     3.210000000     3.468000000
O     6.264000000     2.997000000    -1.490000000
H     6.631000000     2.145000000    -1.729000000
H     5.504000000     2.786000000    -0.947000000
O     1.837000000     3.897000000     0.770000000
H     2.571000000     4.510000000     0.718000000
H     1.366000000     4.017000000    -0.055000000
O    -3.713000000     2.580000000    -3.244000000
H    -4.036000000     1.780000000    -2.829000000
H    -3.626000000     2.351000000    -4.169000000
O    -0.071000000    -0.787000000    -8.529000000
H     0.051000000    -1.341000000    -7.758000000
H    -0.996000000    -0.889000000    -8.753000000
O    -4.780000000    -3.377000000    -1.738000000
H    -4.178000000    -2.706000000    -2.060000000
H    -5.615000000    -3.170000000    -2.157000000
O     7.080000000     0.804000000     0.493000000
H     7.668000000     0.591000000     1.217000000
H     6.283000000     0.307000000     0.677000000
O     3.083000000     2.368000000     4.489000000
H     3.628000000     3.064000000     4.854000000
H     2.847000000     1.827000000     5.243000000
O     2.766000000     2.684000000    -5.442000000
H     2.647000000     3.172000000    -4.627000000
H     2.249000000     1.888000000    -5.322000000
O    -0.489000000    -4.853000000    -1.360000000
H    -0.787000000    -5.762000000    -1.331000000
H    -0.111000000    -4.697000000    -0.495000000
O    -3.787000000    -1.082000000    -2.777000000
H    -4.195000000    -1.442000000    -3.565000000
H    -2.847000000    -1.130000000    -2.952000000
O    -0.032000000    -4.578000000     1.586000000
H    -0.840000000    -4.290000000     2.011000000
H     0.250000000    -5.337000000     2.096000000
O    -2.378000000    -0.355000000    -5.667000000
H    -1.755000000    -0.756000000    -5.062000000
H    -2.950000000    -1.075000000    -5.934000000
O    -4.744000000    -3.507000000     1.203000000
H    -4.688000000    -2.974000000     0.410000000
H    -4.571000000    -2.892000000     1.917000000
O    -3.360000000    -5.651000000    -0.200000000
H    -3.514000000    -4.750000000     0.087000000
H    -3.604000000    -5.652000000    -1.126000000
O     3.609000000     0.396000000     6.529000000
H     4.031000000    -0.453000000     6.661000000
H     3.991000000     0.961000000     7.202000000
O     1.937000000    -2.743000000    -2.196000000
H     1.153000000    -2.865000000    -2.731000000
H     1.609000000    -2.687000000    -1.299000000
O     4.556000000    -2.972000000    -1.995000000
H     3.603000000    -2.889000000    -1.972000000
H     4.840000000    -2.714000000    -1.118000000
O    -1.503000000    -3.935000000    -3.947000000
H    -1.303000000    -3.000000000    -3.906000000
H    -1.304000000    -4.261000000    -3.069000000
O     0.926000000    -4.727000000    -4.846000000
H     1.068000000    -5.344000000    -4.127000000
H     0.037000000    -4.401000000    -4.710000000
O     0.840000000     5.364000000     4.617000000
H     0.667000000     4.437000000     4.452000000
H     0.647000000     5.796000000     3.785000000
O    -3.414000000     2.112000000    -5.971000000
H    -3.880000000     2.052000000    -6.805000000
H    -2.952000000     1.277000000    -5.895000000
O     1.830000000    -2.781000000     0.821000000
H     1.321000000    -3.504000000     1.188000000
H     1.252000000    -2.021000000     0.893000000
O    -4.601000000    -0.438000000     1.652000000
H    -4.903000000    -0.385000000     0.745000000
H    -4.190000000     0.411000000     1.818000000
O     1.613000000    -2.533000000    -6.532000000
H     1.371000000    -3.388000000    -6.175000000
H     2.120000000    -2.117000000    -5.834000000
O     2.448000000    -1.078000000    -4.330000000
H     2.383000000    -1.651000000    -3.567000000
H     1.706000000    -0.479000000    -4.243000000
O    -4.309000000     3.277000000     5.118000000
H    -4.341000000     4.234000000     5.113000000
H    -3.452000000     3.064000000     4.751000000
O    -1.635000000     2.269000000    -0.359000000
H    -0.957000000     1.644000000    -0.105000000
H    -1.173000000     2.926000000    -0.880000000
O    -0.989000000     1.710000000     5.821000000
H    -1.174000000     2.018000000     4.934000000
H    -1.101000000     2.485000000     6.371000000
O    -5.450000000    -0.013000000    -0.828000000
H    -6.013000000     0.695000000    -1.141000000
H    -4.915000000    -0.247000000    -1.586000000
O    -2.183000000    -3.804000000     3.188000000
H    -3.028000000    -4.172000000     3.445000000
H    -2.083000000    -3.026000000     3.737000000
O     0.375000000     4.039000000    -1.559000000
H     0.370000000     4.988000000    -1.688000000
H     0.959000000     3.708000000    -2.241000000
O     2.787000000    -1.799000000     3.670000000
H     2.494000000    -2.709000000     3.625000000
H     3.251000000    -1.738000000     4.505000000
O     3.124000000     2.798000000    -2.614000000
H     3.739000000     3.456000000    -2.290000000
H     3.640000000     1.994000000    -2.667000000
O     4.323000000     2.006000000    -0.104000000
H     3.379000000     2.142000000    -0.023000000
H     4.582000000     1.616000000     0.731000000
O     1.894000000    -4.388000000     4.953000000
H     1.012000000    -4.409000000     5.324000000
H     2.056000000    -5.287000000     4.667000000
O    -4.048000000    -4.542000000    -4.635000000
H    -3.111000000    -4.360000000    -4.560000000
H    -4.381000000    -3.850000000    -5.207000000
O     5.091000000    -0.398000000    -4.847000000
H     5.410000000    -1.299000000    -4.794000000
H     4.159000000    -0.485000000    -5.046000000
O     4.073000000     0.488000000     2.342000000
H     3.629000000     1.109000000     2.919000000
H     3.848000000    -0.372000000     2.696000000
O    -0.743000000     2.351000000    -5.495000000
H    -0.401000000     1.577000000    -5.048000000
H    -1.692000000     2.224000000    -5.502000000
