158
-3030.36463
C     0.629000000     0.035000000     1.291000000
H     1.053000000     0.346000000     2.242000000
C    -0.404000000     0.910000000     0.914000000
H    -0.705000000     1.703000000     1.593000000
C    -0.858000000     0.837000000    -0.399000000
H    -1.607000000     1.575000000    -0.745000000
C    -0.506000000    -0.280000000    -1.115000000
H    -0.949000000    -0.541000000    -2.073000000
C     0.546000000    -1.113000000    -0.778000000
H     0.744000000    -1.972000000    -1.414000000
C     1.148000000    -0.979000000     0.454000000
C     2.245000000    -1.952000000     0.940000000
O     2.588000000    -2.937000000     0.270000000
O     2.777000000    -1.792000000     2.003000000
O    -4.675000000     6.124000000    -1.933000000
H    -4.693000000     6.301000000    -0.993000000
H    -4.800000000     5.178000000    -2.001000000
O     1.111000000    -4.753000000    -1.097000000
H     0.995000000    -5.550000000    -0.580000000
H     1.709000000    -4.215000000    -0.578000000
O     3.211000000    -5.125000000     1.591000000
H     3.074000000    -4.263000000     1.197000000
H     2.392000000    -5.311000000     2.050000000
O     1.112000000    -4.699000000    -3.940000000
H     0.764000000    -3.819000000    -4.086000000
H     1.082000000    -4.814000000    -2.990000000
O     4.380000000    -2.352000000     4.229000000
H     3.822000000    -2.057000000     3.510000000
H     4.547000000    -3.275000000     4.039000000
O     0.834000000    -5.965000000     2.686000000
H     0.439000000    -5.833000000     3.548000000
H     0.716000000    -6.899000000     2.510000000
O     4.127000000     1.010000000     5.023000000
H     5.024000000     0.728000000     4.843000000
H     3.626000000     0.196000000     5.077000000
O    -0.789000000     2.200000000     4.176000000
H    -1.559000000     2.436000000     3.659000000
H    -0.049000000     2.535000000     3.670000000
O     4.119000000    -6.790000000    -0.226000000
H     4.063000000    -6.305000000     0.598000000
H     4.989000000    -7.189000000    -0.210000000
O     5.650000000    -2.861000000     0.074000000
H     5.844000000    -1.992000000     0.427000000
H     4.694000000    -2.915000000     0.084000000
O     2.011000000     0.105000000    -3.390000000
H     2.136000000    -0.812000000    -3.146000000
H     2.540000000     0.595000000    -2.760000000
O     1.025000000    -2.439000000     4.076000000
H     1.600000000    -2.496000000     3.313000000
H     0.141000000    -2.498000000     3.715000000
O     4.402000000    -5.126000000    -2.640000000
H     3.993000000    -5.466000000    -3.436000000
H     4.087000000    -5.703000000    -1.944000000
O    -2.753000000    -1.782000000    -4.412000000
H    -3.051000000    -1.436000000    -3.571000000
H    -2.965000000    -2.714000000    -4.376000000
O     3.313000000    -3.226000000    -5.758000000
H     3.787000000    -2.402000000    -5.648000000
H     2.511000000    -3.110000000    -5.249000000
O     4.449000000    -5.157000000     4.177000000
H     3.990000000    -5.390000000     3.369000000
H     3.967000000    -5.614000000     4.866000000
O    -3.378000000     4.535000000    -4.777000000
H    -2.523000000     4.145000000    -4.961000000
H    -3.187000000     5.258000000    -4.179000000
O    -2.169000000    -4.878000000    -1.544000000
H    -2.346000000    -5.319000000    -0.713000000
H    -1.234000000    -4.678000000    -1.515000000
O     3.747000000     3.722000000     4.588000000
H     3.911000000     2.780000000     4.643000000
H     2.902000000     3.843000000     5.021000000
O    -3.790000000    -1.477000000    -1.940000000
H    -4.441000000    -0.952000000    -1.475000000
H    -4.094000000    -2.379000000    -1.841000000
O     0.854000000    -3.504000000     6.682000000
H     0.897000000    -3.170000000     5.786000000
H     1.651000000    -3.176000000     7.098000000
O    -0.563000000     0.014000000     5.574000000
H    -0.091000000    -0.591000000     5.002000000
H    -0.770000000     0.762000000     5.013000000
O     0.307000000    -2.109000000    -4.472000000
H    -0.645000000    -2.084000000    -4.566000000
H     0.581000000    -1.197000000    -4.565000000
O    -5.223000000     1.077000000     0.486000000
H    -4.634000000     0.587000000     1.059000000
H    -5.816000000     0.415000000     0.130000000
O    -2.080000000     4.782000000    -0.195000000
H    -2.333000000     5.698000000    -0.084000000
H    -2.867000000     4.357000000    -0.537000000
O     5.051000000     0.115000000     0.062000000
H     4.828000000    -0.344000000     0.872000000
H     4.920000000     1.041000000     0.267000000
O    -3.471000000     0.160000000     2.601000000
H    -3.888000000     0.682000000     3.286000000
H    -2.915000000     0.782000000     2.131000000
O     6.661000000    -3.545000000    -2.447000000
H     6.004000000    -4.231000000    -2.563000000
H     6.379000000    -3.073000000    -1.663000000
O    -3.670000000    -1.162000000    -6.836000000
H    -3.570000000    -0.260000000    -7.141000000
H    -3.108000000    -1.217000000    -6.064000000
O     1.864000000     2.496000000    -0.983000000
H     1.346000000     3.289000000    -1.122000000
H     1.215000000     1.807000000    -0.841000000
O    -2.878000000    -4.589000000    -4.158000000
H    -2.690000000    -4.580000000    -3.220000000
H    -3.652000000    -5.145000000    -4.243000000
O    -4.228000000     3.100000000    -0.904000000
H    -4.750000000     2.658000000    -0.234000000
H    -4.451000000     2.648000000    -1.718000000
O     6.804000000    -5.528000000     0.866000000
H     6.260000000    -4.742000000     0.803000000
H     6.864000000    -5.850000000    -0.033000000
O    -0.126000000     1.093000000    -6.834000000
H     0.255000000     0.352000000    -7.305000000
H    -0.960000000     0.761000000    -6.500000000
O    -4.546000000     1.639000000    -3.580000000
H    -4.620000000     0.815000000    -4.061000000
H    -5.205000000     2.208000000    -3.976000000
O     3.429000000     3.087000000    -3.372000000
H     4.183000000     3.616000000    -3.112000000
H     2.922000000     2.980000000    -2.567000000
O     4.288000000     2.808000000     0.336000000
H     3.756000000     3.206000000     1.026000000
H     3.695000000     2.734000000    -0.411000000
O    -1.900000000     3.549000000     6.311000000
H    -1.653000000     2.792000000     5.780000000
H    -1.884000000     3.226000000     7.211000000
O     3.123000000    -2.314000000    -2.409000000
H     3.615000000    -3.114000000    -2.593000000
H     2.814000000    -2.423000000    -1.510000000
O     2.271000000     3.844000000     2.227000000
H     2.411000000     4.699000000     1.822000000
H     2.889000000     3.820000000     2.957000000
O     3.728000000    -1.711000000     6.982000000
H     3.581000000    -2.578000000     7.361000000
H     4.199000000    -1.884000000     6.166000000
O     0.312000000     4.641000000    -1.178000000
H     0.699000000     5.489000000    -0.959000000
H    -0.512000000     4.621000000    -0.691000000
O    -1.963000000     1.578000000    -4.076000000
H    -1.535000000     1.417000000    -3.235000000
H    -2.849000000     1.856000000    -3.845000000
O     0.098000000     3.802000000    -6.223000000
H    -0.152000000     4.264000000    -5.423000000
H     0.024000000     2.874000000    -5.997000000
O    -2.812000000     3.236000000     2.473000000
H    -2.243000000     3.672000000     1.839000000
H    -3.550000000     3.836000000     2.585000000
O    -0.320000000     4.944000000    -3.793000000
H    -1.138000000     5.438000000    -3.859000000
H    -0.171000000     4.854000000    -2.851000000
O     5.693000000    -0.391000000    -2.844000000
H     4.834000000    -0.639000000    -3.185000000
H     5.532000000    -0.175000000    -1.925000000
O    -1.259000000    -2.732000000     2.764000000
H    -1.182000000    -2.111000000     2.040000000
H    -2.184000000    -2.706000000     3.005000000
