158
-3057.88291
C     1.466000000     0.063000000    -0.209000000
H     2.552000000     0.057000000    -0.148000000
C     0.699000000     0.959000000     0.554000000
H     1.190000000     1.808000000     1.022000000
C    -0.646000000     0.785000000     0.764000000
H    -1.217000000     1.541000000     1.339000000
C    -1.253000000    -0.302000000     0.082000000
H    -2.331000000    -0.397000000     0.180000000
C    -0.521000000    -1.145000000    -0.794000000
H    -1.054000000    -2.008000000    -1.186000000
C     0.825000000    -0.955000000    -0.987000000
C     1.651000000    -1.858000000    -1.823000000
O     2.830000000    -1.588000000    -1.868000000
O     1.138000000    -2.734000000    -2.483000000
O     1.015000000     4.374000000     0.831000000
H     0.086000000     4.415000000     0.605000000
H     1.436000000     4.013000000     0.050000000
O    -3.422000000    -3.462000000    -2.481000000
H    -3.941000000    -4.166000000    -2.870000000
H    -2.957000000    -3.071000000    -3.220000000
O    -6.243000000    -0.616000000     3.607000000
H    -7.002000000    -0.570000000     3.026000000
H    -5.617000000    -1.168000000     3.139000000
O     7.257000000    -4.260000000    -1.190000000
H     6.337000000    -3.999000000    -1.230000000
H     7.594000000    -4.086000000    -2.069000000
O     7.219000000    -0.635000000    -1.743000000
H     7.098000000    -1.519000000    -2.091000000
H     8.169000000    -0.523000000    -1.700000000
O    -5.227000000     5.077000000     1.730000000
H    -4.391000000     4.802000000     2.106000000
H    -5.357000000     5.967000000     2.059000000
O    -2.781000000    -1.968000000     5.730000000
H    -3.176000000    -2.833000000     5.841000000
H    -3.339000000    -1.532000000     5.085000000
O    -4.300000000     2.433000000    -2.148000000
H    -4.956000000     2.745000000    -1.526000000
H    -4.806000000     2.159000000    -2.913000000
O    -0.149000000    -5.080000000    -3.395000000
H     0.147000000    -4.249000000    -3.023000000
H     0.464000000    -5.729000000    -3.049000000
O     4.658000000     3.378000000     0.951000000
H     5.487000000     3.837000000     0.814000000
H     4.860000000     2.460000000     0.770000000
O    -2.860000000     3.740000000     2.706000000
H    -1.998000000     3.665000000     3.115000000
H    -3.251000000     2.873000000     2.809000000
O    -4.725000000    -1.417000000    -0.808000000
H    -5.596000000    -1.657000000    -1.125000000
H    -4.127000000    -1.969000000    -1.310000000
O    -0.531000000     3.391000000     3.801000000
H    -0.249000000     2.782000000     3.120000000
H     0.086000000     3.251000000     4.519000000
O    -2.681000000     0.221000000    -5.268000000
H    -2.028000000     0.905000000    -5.115000000
H    -2.243000000    -0.590000000    -5.012000000
O     5.295000000    -2.486000000     1.694000000
H     6.196000000    -2.757000000     1.870000000
H     4.982000000    -2.142000000     2.530000000
O     0.561000000    -4.049000000     0.217000000
H     0.275000000    -4.912000000    -0.085000000
H     1.388000000    -3.898000000    -0.241000000
O    -4.166000000     1.393000000     2.910000000
H    -4.405000000     1.426000000     1.984000000
H    -4.859000000     0.875000000     3.319000000
O    -5.954000000     3.435000000    -0.440000000
H    -5.906000000     2.658000000     0.117000000
H    -5.643000000     4.148000000     0.118000000
O    -4.198000000     6.416000000    -1.190000000
H    -3.664000000     5.714000000    -0.817000000
H    -4.685000000     6.768000000    -0.445000000
O     2.976000000     1.043000000    -3.131000000
H     2.796000000     0.107000000    -3.045000000
H     3.816000000     1.167000000    -2.691000000
O     0.153000000    -2.073000000     2.632000000
H     0.198000000    -2.124000000     1.677000000
H    -0.117000000    -1.173000000     2.812000000
O     2.588000000     3.750000000     2.885000000
H     2.031000000     4.008000000     2.151000000
H     3.462000000     4.051000000     2.640000000
O     4.660000000    -3.273000000    -0.967000000
H     4.223000000    -2.478000000    -1.270000000
H     4.849000000    -3.105000000    -0.043000000
O     5.952000000     0.836000000     0.702000000
H     6.169000000     0.071000000     0.169000000
H     6.294000000     0.627000000     1.571000000
O     1.720000000     2.964000000    -4.465000000
H     1.590000000     3.726000000    -3.900000000
H     2.076000000     2.292000000    -3.882000000
O     5.675000000     1.691000000    -2.791000000
H     6.283000000     0.952000000    -2.815000000
H     6.224000000     2.459000000    -2.948000000
O    -1.685000000     4.558000000     0.253000000
H    -1.666000000     5.495000000     0.059000000
H    -2.310000000     4.475000000     0.973000000
O    -1.738000000     1.564000000    -2.567000000
H    -1.494000000     1.041000000    -1.804000000
H    -2.695000000     1.587000000    -2.547000000
O     3.998000000    -5.692000000    -1.778000000
H     4.847000000    -5.815000000    -2.203000000
H     4.008000000    -4.782000000    -1.481000000
O     2.590000000    -4.813000000    -3.831000000
H     3.083000000    -5.154000000    -3.084000000
H     1.912000000    -4.263000000    -3.438000000
O     6.942000000    -2.686000000    -3.958000000
H     5.990000000    -2.601000000    -3.900000000
H     7.097000000    -3.047000000    -4.831000000
O     2.598000000     3.385000000    -1.246000000
H     2.460000000     2.518000000    -1.628000000
H     3.491000000     3.355000000    -0.902000000
O     3.356000000     1.183000000     2.916000000
H     2.503000000     0.789000000     3.095000000
H     3.150000000     2.046000000     2.556000000
O     0.800000000     0.475000000     4.656000000
H     0.855000000     1.257000000     5.205000000
H     0.327000000    -0.161000000     5.193000000
O    -0.885000000    -4.547000000     3.299000000
H    -1.836000000    -4.567000000     3.400000000
H    -0.704000000    -3.695000000     2.901000000
O     1.394000000    -6.646000000    -2.042000000
H     1.357000000    -7.477000000    -1.567000000
H     2.303000000    -6.361000000    -1.955000000
O     0.651000000    -2.285000000    -5.416000000
H     0.849000000    -2.316000000    -4.480000000
H     1.490000000    -2.454000000    -5.845000000
O    -5.543000000     0.795000000     0.797000000
H    -5.292000000     0.163000000     0.124000000
H    -6.396000000     0.491000000     1.106000000
O    -0.072000000    -5.710000000    -6.154000000
H    -0.087000000    -5.412000000    -5.244000000
H    -0.091000000    -6.665000000    -6.093000000
O     3.137000000    -2.251000000    -6.478000000
H     3.675000000    -2.295000000    -5.687000000
H     3.769000000    -2.185000000    -7.194000000
O    -4.028000000    -1.954000000     2.393000000
H    -3.751000000    -2.539000000     1.688000000
H    -3.554000000    -1.139000000     2.229000000
O    -2.934000000    -3.756000000     0.353000000
H    -3.337000000    -3.832000000    -0.512000000
H    -1.997000000    -3.870000000     0.191000000
O    -2.046000000    -2.591000000    -4.682000000
H    -2.326000000    -2.862000000    -5.557000000
H    -1.093000000    -2.527000000    -4.744000000
O     4.182000000    -2.553000000    -4.047000000
H     3.854000000    -2.070000000    -3.288000000
H     3.847000000    -3.442000000    -3.928000000
O    -0.669000000    -6.530000000    -0.168000000
H    -1.390000000    -7.158000000    -0.122000000
H    -0.271000000    -6.686000000    -1.024000000
O     2.791000000     6.496000000    -0.595000000
H     2.659000000     5.613000000    -0.940000000
H     2.001000000     6.676000000    -0.086000000
O    -1.585000000     4.457000000    -2.577000000
H    -1.985000000     4.265000000    -1.728000000
H    -1.293000000     3.606000000    -2.902000000
O     0.127000000     6.603000000     3.693000000
H     0.378000000     6.826000000     2.797000000
H     0.039000000     5.649000000     3.687000000
