158
-3025.37952
C     1.439000000     0.472000000     0.006000000
H     2.460000000     0.840000000     0.072000000
C     0.460000000     0.867000000     0.965000000
H     0.667000000     1.501000000     1.823000000
C    -0.790000000     0.303000000     0.857000000
H    -1.582000000     0.509000000     1.601000000
C    -1.168000000    -0.518000000    -0.239000000
H    -2.211000000    -0.758000000    -0.428000000
C    -0.209000000    -0.935000000    -1.147000000
H    -0.533000000    -1.616000000    -1.930000000
C     1.121000000    -0.460000000    -1.013000000
C     2.075000000    -0.826000000    -2.085000000
O     3.237000000    -0.502000000    -2.008000000
O     1.749000000    -1.586000000    -2.949000000
O    -5.427000000    -0.406000000    -1.809000000
H    -5.462000000     0.486000000    -1.464000000
H    -4.936000000    -0.328000000    -2.626000000
O     3.947000000     4.935000000     3.717000000
H     3.041000000     4.678000000     3.547000000
H     4.285000000     4.253000000     4.298000000
O    -5.710000000     2.605000000    -1.390000000
H    -5.668000000     2.175000000    -0.536000000
H    -4.813000000     2.895000000    -1.556000000
O    -1.734000000     1.739000000     5.302000000
H    -2.308000000     0.974000000     5.342000000
H    -2.329000000     2.487000000     5.343000000
O    -4.904000000     4.557000000     1.188000000
H    -5.261000000     3.669000000     1.177000000
H    -5.622000000     5.108000000     0.874000000
O     0.764000000    -4.084000000    -2.609000000
H     1.297000000    -3.299000000    -2.742000000
H     0.270000000    -3.905000000    -1.809000000
O     5.052000000    -4.690000000    -1.905000000
H     4.978000000    -3.786000000    -2.213000000
H     4.294000000    -4.810000000    -1.333000000
O     2.013000000     0.865000000    -6.002000000
H     2.179000000     0.409000000    -6.827000000
H     1.392000000     0.303000000    -5.539000000
O    -3.381000000    -3.267000000     0.360000000
H    -3.399000000    -3.034000000    -0.568000000
H    -3.333000000    -4.223000000     0.366000000
O    -6.175000000    -1.441000000     2.679000000
H    -6.516000000    -0.766000000     3.267000000
H    -5.267000000    -1.564000000     2.957000000
O    -5.566000000     1.721000000     1.336000000
H    -6.210000000     1.302000000     1.907000000
H    -4.720000000     1.416000000     1.664000000
O    -6.876000000    -2.645000000    -2.346000000
H    -6.262000000    -1.982000000    -2.029000000
H    -7.223000000    -2.280000000    -3.159000000
O    -0.132000000     5.108000000     1.351000000
H     0.268000000     5.738000000     0.751000000
H    -0.624000000     4.515000000     0.782000000
O    -7.773000000    -1.115000000     0.475000000
H    -6.978000000    -1.043000000     1.002000000
H    -7.481000000    -0.957000000    -0.423000000
O     7.317000000     1.919000000    -4.251000000
H     6.855000000     1.986000000    -5.087000000
H     6.731000000     1.405000000    -3.694000000
O     1.608000000    -1.498000000     2.644000000
H     1.411000000    -0.637000000     2.277000000
H     0.810000000    -1.748000000     3.109000000
O    -5.152000000     4.905000000     4.016000000
H    -5.437000000     4.086000000     3.611000000
H    -5.689000000     5.579000000     3.599000000
O     2.886000000     3.500000000    -2.369000000
H     3.488000000     3.485000000    -1.626000000
H     3.228000000     2.835000000    -2.967000000
O    -1.313000000    -5.722000000     1.411000000
H    -0.906000000    -4.900000000     1.135000000
H    -0.841000000    -6.397000000     0.924000000
O    -0.345000000    -1.968000000     4.685000000
H    -0.899000000    -1.210000000     4.869000000
H    -0.062000000    -2.273000000     5.547000000
O     4.318000000    -2.341000000     3.198000000
H     3.442000000    -1.985000000     3.344000000
H     4.910000000    -1.649000000     3.494000000
O     5.632000000     0.821000000    -1.875000000
H     4.807000000     0.339000000    -1.929000000
H     5.398000000     1.653000000    -1.463000000
O    -2.974000000     6.320000000     2.205000000
H    -2.283000000     5.805000000     1.789000000
H    -3.592000000     5.668000000     2.537000000
O     0.941000000    -6.844000000    -2.852000000
H     0.805000000    -5.906000000    -2.719000000
H     0.480000000    -7.040000000    -3.667000000
O     3.676000000     1.640000000    -4.211000000
H     3.738000000     0.781000000    -3.794000000
H     3.175000000     1.483000000    -5.011000000
O     4.990000000     3.221000000    -0.754000000
H     5.750000000     3.614000000    -1.184000000
H     4.995000000     3.593000000     0.128000000
O     8.078000000    -0.552000000    -2.259000000
H     8.637000000    -0.408000000    -1.495000000
H     7.280000000    -0.060000000    -2.068000000
O     4.282000000     0.352000000     3.847000000
H     4.549000000     0.709000000     3.000000000
H     4.117000000     1.122000000     4.390000000
O    -2.262000000     3.587000000     0.262000000
H    -2.173000000     3.858000000    -0.652000000
H    -3.152000000     3.844000000     0.503000000
O     0.310000000     3.901000000    -1.388000000
H     0.301000000     3.087000000    -0.884000000
H     1.186000000     3.936000000    -1.772000000
O     5.812000000     0.801000000     1.179000000
H     6.188000000     1.201000000     0.394000000
H     6.419000000     1.034000000     1.881000000
O    -0.017000000    -0.296000000    -4.571000000
H    -0.488000000    -0.952000000    -5.086000000
H     0.367000000    -0.792000000    -3.847000000
O     4.747000000    -0.645000000    -6.512000000
H     3.988000000    -0.941000000    -6.010000000
H     4.438000000    -0.615000000    -7.418000000
O     5.657000000    -3.091000000    -5.325000000
H     5.465000000    -2.726000000    -4.461000000
H     5.034000000    -2.661000000    -5.910000000
O     1.188000000     4.065000000     3.726000000
H     1.125000000     3.114000000     3.814000000
H     0.439000000     4.306000000     3.182000000
O     0.891000000     1.563000000     4.203000000
H     1.457000000     0.918000000     4.628000000
H     0.103000000     1.583000000     4.745000000
O    -0.265000000    -1.952000000    -6.826000000
H    -0.015000000    -1.100000000    -7.181000000
H    -1.142000000    -2.109000000    -7.176000000
O     0.272000000    -3.708000000     0.091000000
H     1.220000000    -3.837000000     0.093000000
H     0.154000000    -2.786000000     0.319000000
O    -3.223000000    -3.110000000    -2.335000000
H    -4.018000000    -2.952000000    -2.843000000
H    -2.606000000    -3.482000000    -2.965000000
O     2.746000000    -1.958000000    -5.338000000
H     2.222000000    -2.658000000    -5.729000000
H     2.353000000    -1.819000000    -4.476000000
O    -3.472000000    -0.324000000     4.994000000
H    -4.077000000    -0.914000000     5.443000000
H    -3.403000000    -0.679000000     4.108000000
O    -3.623000000    -2.450000000     3.198000000
H    -3.372000000    -2.625000000     2.291000000
H    -2.980000000    -2.931000000     3.721000000
O    -3.918000000     0.124000000    -4.334000000
H    -3.692000000    -0.607000000    -4.910000000
H    -3.430000000     0.867000000    -4.688000000
O     4.847000000    -1.763000000     0.176000000
H     4.504000000    -1.139000000    -0.463000000
H     5.085000000    -1.226000000     0.932000000
O    -0.588000000     2.277000000    -3.934000000
H    -0.316000000     2.503000000    -3.044000000
H    -0.208000000     1.412000000    -4.088000000
O     2.885000000    -3.610000000     0.904000000
H     3.475000000    -2.912000000     0.620000000
H     2.603000000    -3.343000000     1.779000000
O    -1.939000000    -4.763000000    -4.593000000
H    -1.365000000    -4.640000000    -3.836000000
H    -1.915000000    -5.705000000    -4.761000000
O     5.247000000    -2.205000000    -2.911000000
H     4.403000000    -1.763000000    -3.003000000
H     5.649000000    -1.795000000    -2.144000000
