158
-3051.17346
C     1.225000000    -0.804000000    -0.093000000
H     2.172000000    -1.335000000    -0.041000000
C     1.081000000     0.280000000     0.809000000
H     1.817000000     0.654000000     1.515000000
C    -0.187000000     0.914000000     0.818000000
H    -0.290000000     1.694000000     1.484000000
C    -1.264000000     0.421000000     0.044000000
H    -2.177000000     1.010000000     0.078000000
C    -0.980000000    -0.552000000    -0.931000000
H    -1.711000000    -0.858000000    -1.675000000
C     0.258000000    -1.181000000    -1.006000000
C     0.496000000    -2.291000000    -2.055000000
O     1.600000000    -2.667000000    -2.348000000
O    -0.463000000    -2.789000000    -2.619000000
O     1.433000000    -4.835000000     2.338000000
H     2.056000000    -5.329000000     1.805000000
H     0.612000000    -4.877000000     1.848000000
O    -1.193000000     4.724000000    -0.294000000
H    -1.302000000     5.601000000    -0.663000000
H    -0.768000000     4.222000000    -0.990000000
O    -0.445000000     3.398000000    -2.424000000
H    -1.124000000     2.980000000    -2.953000000
H     0.285000000     2.780000000    -2.440000000
O    -4.116000000     1.751000000     3.919000000
H    -3.517000000     2.350000000     4.365000000
H    -4.670000000     2.320000000     3.384000000
O     3.553000000     0.906000000     4.497000000
H     3.492000000     1.558000000     5.195000000
H     2.644000000     0.721000000     4.261000000
O    -4.603000000    -0.160000000     6.045000000
H    -3.816000000     0.086000000     5.561000000
H    -5.300000000    -0.152000000     5.389000000
O     5.176000000    -1.384000000    -1.319000000
H     4.713000000    -1.847000000    -0.621000000
H     6.070000000    -1.723000000    -1.279000000
O    -2.790000000    -3.968000000    -2.874000000
H    -1.926000000    -3.577000000    -2.739000000
H    -2.794000000    -4.741000000    -2.310000000
O     3.007000000     3.564000000     0.586000000
H     3.552000000     4.349000000     0.529000000
H     3.628000000     2.852000000     0.741000000
O    -0.417000000    -0.485000000    -7.421000000
H    -0.818000000    -1.069000000    -6.778000000
H     0.425000000    -0.893000000    -7.624000000
O    -4.020000000     4.565000000     2.434000000
H    -3.936000000     4.846000000     1.522000000
H    -3.121000000     4.404000000     2.719000000
O    -1.456000000     4.731000000     3.272000000
H    -1.304000000     4.927000000     4.196000000
H    -0.601000000     4.454000000     2.942000000
O    -4.253000000    -0.729000000    -3.898000000
H    -3.688000000    -0.123000000    -4.376000000
H    -4.162000000    -1.560000000    -4.364000000
O    -4.602000000    -1.964000000     2.530000000
H    -4.656000000    -1.280000000     1.862000000
H    -5.509000000    -2.242000000     2.661000000
O     4.385000000    -2.909000000     0.881000000
H     4.820000000    -3.476000000     1.518000000
H     4.110000000    -2.145000000     1.389000000
O    -6.372000000     2.573000000     2.055000000
H    -7.125000000     2.175000000     1.617000000
H    -5.771000000     1.844000000     2.207000000
O    -0.005000000     1.358000000    -4.400000000
H     0.635000000     0.682000000    -4.178000000
H     0.522000000     2.100000000    -4.696000000
O    -1.128000000    -2.490000000     1.341000000
H    -0.575000000    -1.795000000     0.984000000
H    -1.988000000    -2.338000000     0.949000000
O     0.736000000     4.984000000     1.583000000
H    -0.044000000     5.075000000     1.035000000
H     1.305000000     4.390000000     1.093000000
O     1.808000000    -7.672000000    -4.380000000
H     2.652000000    -7.458000000    -4.779000000
H     1.514000000    -6.851000000    -3.987000000
O     3.360000000    -4.572000000    -1.282000000
H     2.858000000    -3.973000000    -1.835000000
H     3.688000000    -4.022000000    -0.569000000
O    -0.968000000    -5.025000000     0.781000000
H    -1.817000000    -5.177000000     1.196000000
H    -0.740000000    -4.127000000     1.023000000
O     4.097000000    -6.352000000    -4.942000000
H     4.845000000    -6.429000000    -5.534000000
H     4.050000000    -5.419000000    -4.736000000
O     4.929000000     1.234000000     0.135000000
H     4.785000000     0.557000000    -0.526000000
H     5.052000000     0.749000000     0.951000000
O     2.874000000     2.617000000    -3.817000000
H     2.830000000     1.777000000    -4.273000000
H     2.582000000     2.422000000    -2.926000000
O     3.907000000    -1.240000000     2.826000000
H     3.220000000    -1.763000000     3.240000000
H     4.036000000    -0.501000000     3.421000000
O     1.877000000    -2.686000000     3.749000000
H     1.711000000    -3.459000000     3.209000000
H     1.561000000    -2.930000000     4.619000000
O    -3.366000000     3.214000000    -0.936000000
H    -2.595000000     3.717000000    -0.674000000
H    -3.374000000     2.463000000    -0.343000000
O     2.078000000     6.129000000     3.891000000
H     2.863000000     5.672000000     3.589000000
H     1.380000000     5.812000000     3.318000000
O    -2.582000000     1.011000000    -5.251000000
H    -2.801000000     1.809000000    -4.769000000
H    -1.631000000     0.939000000    -5.174000000
O     0.945000000    -5.289000000    -3.184000000
H     0.693000000    -4.432000000    -2.843000000
H     1.204000000    -5.789000000    -2.410000000
O     5.072000000    -1.891000000    -3.926000000
H     5.026000000    -1.565000000    -3.027000000
H     5.440000000    -1.163000000    -4.426000000
O     1.942000000     2.076000000    -1.405000000
H     1.475000000     1.461000000    -0.839000000
H     2.248000000     2.762000000    -0.812000000
O     0.941000000     0.136000000     4.045000000
H     0.137000000     0.019000000     4.552000000
H     1.048000000    -0.688000000     3.571000000
O    -1.329000000     0.413000000     6.314000000
H    -1.740000000     1.221000000     6.006000000
H    -0.734000000     0.697000000     7.008000000
O    -1.846000000    -3.059000000     4.171000000
H    -2.776000000    -3.221000000     4.011000000
H    -1.539000000    -2.622000000     3.377000000
O     1.016000000    -7.157000000    -0.686000000
H     0.286000000    -6.622000000    -0.373000000
H     0.654000000    -8.041000000    -0.749000000
O    -0.677000000    -2.374000000    -5.431000000
H    -0.897000000    -2.835000000    -4.621000000
H     0.102000000    -1.863000000    -5.211000000
O    -2.924000000    -5.070000000    -5.125000000
H    -2.740000000    -4.825000000    -4.218000000
H    -3.512000000    -5.823000000    -5.056000000
O    -0.107000000    -5.280000000    -6.058000000
H     0.424000000    -5.253000000    -5.262000000
H    -0.985000000    -5.033000000    -5.769000000
O     1.908000000    -0.662000000    -4.256000000
H     2.009000000    -1.251000000    -3.509000000
H     2.726000000    -0.752000000    -4.745000000
O    -6.108000000    -0.232000000     0.918000000
H    -5.550000000    -0.069000000     0.157000000
H    -6.947000000    -0.501000000     0.545000000
O    -4.468000000    -1.093000000    -1.218000000
H    -4.364000000    -0.815000000    -2.128000000
H    -4.425000000    -2.049000000    -1.252000000
O    -4.247000000    -2.574000000    -5.829000000
H    -5.009000000    -2.943000000    -6.276000000
H    -3.726000000    -3.336000000    -5.576000000
O     3.475000000    -3.844000000    -4.582000000
H     2.699000000    -3.879000000    -4.023000000
H     3.988000000    -3.114000000    -4.235000000
O    -3.201000000     2.947000000    -3.579000000
H    -3.311000000     3.135000000    -2.647000000
H    -4.029000000     3.217000000    -3.977000000
O    -1.391000000     7.101000000     1.606000000
H    -2.296000000     6.978000000     1.319000000
H    -1.175000000     6.292000000     2.069000000
O    -2.566000000     3.137000000     5.941000000
H    -3.239000000     3.706000000     6.315000000
H    -1.782000000     3.686000000     5.905000000
