158
-3013.75943
C     0.972000000     0.735000000     0.818000000
H     1.757000000     1.282000000     1.334000000
C     0.854000000     0.734000000    -0.556000000
H     1.596000000     1.214000000    -1.188000000
C    -0.121000000     0.031000000    -1.241000000
H    -0.344000000     0.152000000    -2.262000000
C    -0.963000000    -0.707000000    -0.499000000
H    -1.789000000    -1.136000000    -1.062000000
C    -0.947000000    -0.693000000     0.914000000
H    -1.766000000    -1.230000000     1.386000000
C     0.093000000    -0.019000000     1.582000000
C     0.223000000    -0.105000000     3.145000000
O    -0.571000000    -0.754000000     3.774000000
O     1.127000000     0.564000000     3.688000000
O    -0.766000000     4.732000000    -2.028000000
H     0.137000000     4.947000000    -1.795000000
H    -0.931000000     3.892000000    -1.599000000
O     2.156000000     4.657000000    -1.841000000
H     2.940000000     4.109000000    -1.803000000
H     2.373000000     5.423000000    -1.310000000
O     2.650000000     2.661000000     3.775000000
H     2.006000000     1.955000000     3.714000000
H     2.335000000     3.211000000     4.492000000
O    -1.963000000    -0.099000000    -4.909000000
H    -1.702000000    -0.867000000    -4.401000000
H    -1.778000000    -0.338000000    -5.817000000
O    -0.942000000    -5.556000000     2.993000000
H    -0.291000000    -6.140000000     2.605000000
H    -0.598000000    -4.676000000     2.836000000
O     1.918000000     2.880000000     7.521000000
H     1.353000000     2.765000000     8.285000000
H     1.320000000     2.846000000     6.774000000
O     5.797000000     1.837000000     5.220000000
H     4.864000000     1.713000000     5.389000000
H     6.219000000     1.651000000     6.059000000
O     2.599000000     3.207000000    -5.797000000
H     1.694000000     2.898000000    -5.739000000
H     3.129000000     2.416000000    -5.698000000
O     0.112000000    -3.106000000    -7.386000000
H    -0.590000000    -2.905000000    -8.005000000
H     0.369000000    -2.255000000    -7.032000000
O     4.299000000    -0.511000000     0.583000000
H     4.466000000     0.394000000     0.847000000
H     3.913000000    -0.919000000     1.358000000
O     1.781000000    -3.561000000     5.743000000
H     2.149000000    -2.805000000     5.286000000
H     2.288000000    -3.624000000     6.552000000
O    -3.574000000    -1.404000000     6.971000000
H    -3.795000000    -2.021000000     6.273000000
H    -2.643000000    -1.221000000     6.842000000
O    -3.885000000     1.856000000     5.908000000
H    -3.150000000     1.912000000     6.519000000
H    -3.477000000     1.704000000     5.056000000
O    -2.275000000    -3.357000000    -1.595000000
H    -1.988000000    -2.943000000    -2.409000000
H    -1.463000000    -3.536000000    -1.119000000
O     4.384000000    -2.470000000     5.202000000
H     5.262000000    -2.094000000     5.254000000
H     4.353000000    -3.107000000     5.916000000
O     2.520000000    -0.623000000    -5.729000000
H     2.989000000    -0.035000000    -5.136000000
H     2.010000000    -1.189000000    -5.149000000
O    -1.972000000    -0.803000000    -7.391000000
H    -2.620000000    -1.508000000    -7.373000000
H    -2.407000000    -0.090000000    -7.859000000
O     3.143000000     3.657000000     1.197000000
H     2.959000000     3.316000000     2.072000000
H     2.282000000     3.869000000     0.837000000
O    -3.208000000    -0.182000000     3.415000000
H    -3.688000000    -0.970000000     3.670000000
H    -2.311000000    -0.342000000     3.707000000
O    -3.559000000     3.634000000    -2.570000000
H    -4.493000000     3.706000000    -2.376000000
H    -3.340000000     4.458000000    -3.005000000
O     3.375000000    -0.771000000     3.117000000
H     2.507000000    -0.404000000     3.287000000
H     3.619000000    -1.199000000     3.938000000
O     4.172000000     0.960000000    -4.455000000
H     4.914000000     1.565000000    -4.450000000
H     4.067000000     0.702000000    -3.539000000
O    -1.342000000     2.611000000     0.214000000
H    -0.963000000     1.732000000     0.177000000
H    -2.099000000     2.570000000    -0.371000000
O     0.910000000    -2.237000000    -3.841000000
H     0.157000000    -2.722000000    -4.178000000
H     1.104000000    -2.650000000    -2.999000000
O    -1.708000000     1.857000000     7.494000000
H    -1.777000000     0.959000000     7.168000000
H    -0.876000000     2.176000000     7.143000000
O    -4.509000000     1.516000000     1.650000000
H    -3.925000000     1.149000000     2.314000000
H    -4.745000000     0.770000000     1.099000000
O    -5.958000000    -0.805000000     0.947000000
H    -5.675000000    -1.581000000     0.463000000
H    -6.448000000    -0.289000000     0.308000000
O     0.216000000     1.077000000    -8.693000000
H     0.077000000     1.451000000    -7.824000000
H    -0.666000000     0.944000000    -9.040000000
O     0.170000000     2.640000000     5.449000000
H     0.168000000     1.814000000     4.966000000
H    -0.643000000     3.073000000     5.187000000
O     0.232000000    -3.174000000     2.600000000
H     1.093000000    -2.842000000     2.349000000
H    -0.192000000    -2.436000000     3.039000000
O    -5.641000000     1.558000000    -4.734000000
H    -5.367000000     2.459000000    -4.901000000
H    -5.088000000     1.270000000    -4.007000000
O    -0.457000000     2.187000000    -6.178000000
H    -0.906000000     1.466000000    -5.735000000
H    -0.864000000     2.977000000    -5.823000000
O    -4.329000000    -3.012000000     3.995000000
H    -5.217000000    -2.758000000     3.744000000
H    -4.447000000    -3.804000000     4.521000000
O    -1.087000000    -0.515000000     6.298000000
H    -1.105000000    -0.680000000     5.355000000
H    -0.168000000    -0.622000000     6.542000000
O    -1.724000000    -2.898000000    -4.461000000
H    -2.260000000    -2.864000000    -5.253000000
H    -1.678000000    -3.828000000    -4.242000000
O     6.571000000    -0.408000000    -2.608000000
H     5.637000000    -0.491000000    -2.418000000
H     6.989000000    -0.374000000    -1.747000000
O    -6.493000000    -3.400000000    -0.345000000
H    -5.633000000    -3.730000000    -0.603000000
H    -7.111000000    -3.902000000    -0.876000000
O    -1.149000000     4.478000000    -4.709000000
H    -1.193000000     5.433000000    -4.762000000
H    -1.105000000     4.292000000    -3.771000000
O    -4.444000000    -4.769000000    -1.477000000
H    -3.659000000    -4.224000000    -1.532000000
H    -4.218000000    -5.565000000    -1.958000000
O    -1.231000000    -4.139000000     6.193000000
H    -0.474000000    -4.220000000     6.773000000
H    -0.871000000    -4.249000000     5.313000000
O     5.463000000     4.375000000    -0.710000000
H     5.210000000     5.191000000    -0.277000000
H     5.255000000     3.692000000    -0.072000000
O    -2.707000000     1.071000000    -2.573000000
H    -2.373000000     1.161000000    -3.465000000
H    -3.159000000     1.897000000    -2.402000000
O     0.630000000     4.148000000     1.113000000
H    -0.075000000     3.637000000     0.716000000
H     0.246000000     4.503000000     1.915000000
O     3.722000000    -0.275000000    -2.111000000
H     2.767000000    -0.309000000    -2.161000000
H     3.916000000    -0.366000000    -1.178000000
O     1.679000000    -0.143000000     6.778000000
H     2.521000000    -0.588000000     6.878000000
H     1.633000000     0.072000000     5.846000000
O    -4.235000000    -1.145000000    -2.185000000
H    -3.667000000    -0.378000000    -2.263000000
H    -3.700000000    -1.794000000    -1.730000000
O     1.324000000    -3.789000000    -1.126000000
H     1.524000000    -3.788000000    -0.190000000
H     1.993000000    -4.353000000    -1.514000000
O     5.308000000     2.075000000     0.825000000
H     5.968000000     2.363000000     1.455000000
H     4.524000000     2.576000000     1.052000000
