158
-3018.86620
C     0.734000000     1.196000000    -0.563000000
H     1.417000000     2.013000000    -0.778000000
C     0.336000000     0.994000000     0.766000000
H     0.533000000     1.699000000     1.570000000
C    -0.407000000    -0.151000000     1.119000000
H    -0.752000000    -0.287000000     2.170000000
C    -0.495000000    -1.207000000     0.223000000
H    -0.838000000    -2.207000000     0.473000000
C    -0.145000000    -0.976000000    -1.115000000
H    -0.453000000    -1.679000000    -1.885000000
C     0.399000000     0.253000000    -1.528000000
C     0.758000000     0.583000000    -2.908000000
O     1.372000000     1.617000000    -3.086000000
O     0.544000000    -0.208000000    -3.789000000
O    -5.394000000     0.081000000     5.229000000
H    -6.111000000    -0.063000000     5.848000000
H    -5.357000000     1.031000000     5.123000000
O     4.855000000     2.943000000    -2.811000000
H     4.579000000     3.479000000    -3.555000000
H     4.685000000     3.491000000    -2.045000000
O    -5.500000000    -2.969000000     1.867000000
H    -5.824000000    -2.093000000     1.659000000
H    -5.088000000    -2.875000000     2.725000000
O     5.481000000    -0.270000000    -5.109000000
H     4.605000000     0.074000000    -4.932000000
H     5.358000000    -1.218000000    -5.165000000
O     1.010000000     1.401000000     6.075000000
H     1.879000000     1.785000000     5.955000000
H     1.082000000     0.892000000     6.883000000
O    -1.341000000     4.450000000    -0.245000000
H    -0.572000000     4.849000000    -0.652000000
H    -1.942000000     5.181000000    -0.100000000
O    -1.245000000     1.892000000     4.384000000
H    -0.364000000     1.768000000     4.738000000
H    -1.721000000     1.104000000     4.643000000
O    -2.617000000    -4.180000000    -6.179000000
H    -1.744000000    -4.405000000    -6.498000000
H    -2.460000000    -3.732000000    -5.347000000
O    -3.348000000     1.475000000    -5.329000000
H    -2.584000000     1.050000000    -5.720000000
H    -3.354000000     2.354000000    -5.709000000
O     2.662000000    -3.327000000     0.866000000
H     2.677000000    -2.533000000     0.332000000
H     2.875000000    -4.032000000     0.254000000
O     0.636000000     4.345000000    -2.799000000
H    -0.279000000     4.357000000    -3.083000000
H     0.837000000     3.417000000    -2.677000000
O    -4.059000000     1.268000000     0.857000000
H    -4.725000000     1.924000000     0.656000000
H    -3.263000000     1.598000000     0.439000000
O    -1.695000000     4.148000000    -5.644000000
H    -1.157000000     4.940000000    -5.651000000
H    -1.063000000     3.429000000    -5.625000000
O     3.217000000    -0.762000000     0.349000000
H     2.555000000    -0.113000000     0.589000000
H     3.576000000    -0.443000000    -0.479000000
O     1.005000000     5.891000000     0.597000000
H     0.153000000     5.665000000     0.970000000
H     1.639000000     5.597000000     1.251000000
O    -0.881000000    -3.541000000     2.934000000
H    -1.081000000    -3.676000000     2.008000000
H    -1.479000000    -4.128000000     3.397000000
O    -2.110000000    -4.432000000     5.100000000
H    -2.193000000    -5.040000000     5.834000000
H    -2.936000000    -3.947000000     5.096000000
O     1.798000000    -3.559000000     3.384000000
H     2.177000000    -3.359000000     2.528000000
H     0.888000000    -3.788000000     3.196000000
O     0.661000000    -1.912000000     5.692000000
H     1.116000000    -2.058000000     4.863000000
H    -0.187000000    -1.546000000     5.439000000
O     2.999000000     0.889000000    -5.185000000
H     2.323000000     0.919000000    -4.508000000
H     2.808000000     1.639000000    -5.748000000
O    -0.040000000     1.595000000    -5.797000000
H    -0.045000000     1.045000000    -5.014000000
H     0.883000000     1.813000000    -5.931000000
O     3.988000000     4.416000000    -0.608000000
H     3.229000000     3.955000000    -0.252000000
H     3.633000000     5.239000000    -0.944000000
O    -2.767000000     3.655000000     2.813000000
H    -2.182000000     2.975000000     3.148000000
H    -3.475000000     3.172000000     2.385000000
O    -3.898000000    -0.677000000     2.891000000
H    -4.536000000    -0.332000000     3.515000000
H    -3.993000000    -0.121000000     2.118000000
O     0.064000000    -4.242000000     6.966000000
H    -0.842000000    -4.192000000     7.271000000
H     0.251000000    -3.367000000     6.626000000
O     0.759000000    -2.179000000    -6.428000000
H     0.410000000    -2.669000000    -7.173000000
H     0.003000000    -1.712000000    -6.073000000
O    -2.340000000     2.084000000    -1.259000000
H    -2.111000000     3.007000000    -1.153000000
H    -1.618000000     1.609000000    -0.847000000
O    -1.598000000    -1.871000000    -4.564000000
H    -2.319000000    -1.295000000    -4.307000000
H    -0.821000000    -1.469000000    -4.176000000
O     2.093000000     3.264000000    -6.063000000
H     2.014000000     3.772000000    -6.870000000
H     2.817000000     3.676000000    -5.590000000
O    -2.376000000    -4.987000000     0.780000000
H    -2.555000000    -4.394000000     0.050000000
H    -2.027000000    -5.777000000     0.366000000
O     4.571000000     2.636000000     2.776000000
H     5.221000000     3.087000000     2.237000000
H     4.851000000     1.720000000     2.773000000
O     0.247000000    -6.680000000     3.539000000
H    -0.036000000    -5.785000000     3.723000000
H     1.131000000    -6.583000000     3.185000000
O    -0.073000000    -4.970000000    -2.462000000
H     0.624000000    -4.325000000    -2.346000000
H     0.159000000    -5.683000000    -1.867000000
O     3.310000000    -1.466000000     6.873000000
H     2.522000000    -1.256000000     6.372000000
H     3.019000000    -1.475000000     7.785000000
O     3.491000000    -3.978000000    -4.329000000
H     3.023000000    -3.311000000    -3.828000000
H     2.928000000    -4.150000000    -5.084000000
O    -2.916000000    -6.106000000    -3.141000000
H    -2.203000000    -5.469000000    -3.190000000
H    -2.819000000    -6.508000000    -2.277000000
O     2.884000000    -0.827000000    -7.242000000
H     2.230000000    -1.297000000    -6.726000000
H     3.264000000    -0.196000000    -6.631000000
O    -3.228000000    -0.882000000     6.988000000
H    -4.076000000    -0.596000000     6.650000000
H    -2.728000000    -1.123000000     6.208000000
O    -2.946000000     3.104000000     6.840000000
H    -2.953000000     4.020000000     6.564000000
H    -2.966000000     2.607000000     6.022000000
O    -4.600000000    -3.014000000     4.817000000
H    -4.291000000    -2.200000000     4.420000000
H    -5.350000000    -2.751000000     5.351000000
O    -1.816000000    -1.300000000     4.385000000
H    -2.506000000    -1.201000000     3.729000000
H    -1.332000000    -2.078000000     4.106000000
O    -4.955000000    -0.842000000    -0.908000000
H    -4.369000000    -0.218000000    -0.482000000
H    -5.713000000    -0.896000000    -0.325000000
O     2.651000000     4.777000000     2.193000000
H     3.332000000     5.302000000     2.613000000
H     2.940000000     3.872000000     2.310000000
O     2.275000000     6.604000000    -3.401000000
H     2.940000000     6.783000000    -2.735000000
H     1.889000000     5.770000000    -3.135000000
O    -1.610000000     0.071000000    -7.504000000
H    -2.066000000     0.863000000    -7.790000000
H    -0.719000000     0.363000000    -7.312000000
O     3.663000000     0.767000000    -2.071000000
H     4.359000000     1.373000000    -2.321000000
H     2.864000000     1.164000000    -2.418000000
O    -4.074000000    -3.369000000    -1.224000000
H    -4.264000000    -3.490000000    -2.155000000
H    -4.204000000    -2.432000000    -1.074000000
O     1.785000000    -2.419000000    -2.971000000
H     1.889000000    -2.106000000    -2.073000000
H     1.447000000    -1.663000000    -3.451000000
