158
-3029.20440
C     0.345000000     1.021000000    -0.984000000
H     0.599000000     1.928000000    -1.526000000
C     0.213000000     1.222000000     0.388000000
H     0.392000000     2.221000000     0.777000000
C    -0.180000000     0.217000000     1.177000000
H    -0.337000000     0.390000000     2.246000000
C    -0.242000000    -1.081000000     0.711000000
H    -0.481000000    -1.747000000     1.536000000
C    -0.050000000    -1.321000000    -0.679000000
H    -0.138000000    -2.333000000    -1.065000000
C     0.270000000    -0.208000000    -1.511000000
C     0.482000000    -0.504000000    -2.998000000
O     1.019000000     0.253000000    -3.699000000
O     0.106000000    -1.586000000    -3.456000000
O     4.100000000     3.830000000    -4.434000000
H     4.125000000     4.743000000    -4.722000000
H     3.184000000     3.677000000    -4.203000000
O     2.264000000     1.523000000     4.830000000
H     2.793000000     1.620000000     4.038000000
H     2.439000000     0.630000000     5.127000000
O    -2.625000000     0.701000000     5.620000000
H    -2.321000000    -0.204000000     5.550000000
H    -1.889000000     1.226000000     5.305000000
O    -2.571000000     4.243000000    -3.023000000
H    -3.515000000     4.299000000    -2.877000000
H    -2.483000000     3.724000000    -3.823000000
O    -5.299000000     0.928000000     1.680000000
H    -4.803000000     1.716000000     1.460000000
H    -5.537000000     1.044000000     2.600000000
O    -0.471000000     2.186000000     4.880000000
H     0.470000000     2.016000000     4.922000000
H    -0.639000000     2.787000000     5.606000000
O     3.070000000    -3.977000000    -2.528000000
H     2.289000000    -3.952000000    -3.080000000
H     3.272000000    -3.056000000    -2.357000000
O    -3.569000000     2.677000000     3.723000000
H    -3.568000000     1.976000000     4.374000000
H    -3.316000000     3.460000000     4.212000000
O     3.335000000     4.523000000    -1.729000000
H     3.114000000     5.447000000    -1.607000000
H     3.436000000     4.423000000    -2.675000000
O    -2.598000000    -4.695000000    -3.064000000
H    -3.138000000    -5.016000000    -3.787000000
H    -2.395000000    -3.790000000    -3.301000000
O    -0.758000000    -7.525000000    -3.190000000
H    -0.720000000    -6.569000000    -3.158000000
H    -1.670000000    -7.722000000    -3.404000000
O     1.600000000    -4.322000000     0.001000000
H     2.415000000    -4.466000000     0.484000000
H     1.883000000    -4.122000000    -0.891000000
O    -1.737000000     3.155000000    -5.386000000
H    -1.672000000     3.746000000    -6.136000000
H    -1.099000000     2.465000000    -5.569000000
O    -4.673000000    -1.857000000     2.049000000
H    -4.336000000    -1.075000000     1.612000000
H    -4.089000000    -1.984000000     2.797000000
O     2.007000000    -2.758000000     2.813000000
H     1.774000000    -3.667000000     3.004000000
H     1.550000000    -2.560000000     1.996000000
O     0.614000000    -0.159000000    -8.459000000
H     0.765000000    -0.446000000    -7.559000000
H     0.920000000    -0.889000000    -8.997000000
O    -1.532000000     4.696000000    -0.445000000
H    -1.899000000     4.680000000    -1.329000000
H    -1.705000000     3.821000000    -0.099000000
O    -1.375000000    -5.144000000     2.346000000
H    -1.602000000    -5.172000000     1.417000000
H    -1.878000000    -4.408000000     2.695000000
O     1.124000000    -5.430000000     3.607000000
H     1.182000000    -6.270000000     3.152000000
H     0.261000000    -5.089000000     3.371000000
O     0.453000000     4.839000000     2.731000000
H     0.230000000     5.580000000     2.167000000
H    -0.012000000     4.096000000     2.345000000
O     2.697000000     3.223000000     7.258000000
H     3.326000000     2.886000000     7.896000000
H     2.531000000     2.484000000     6.672000000
O     4.948000000    -2.134000000     3.442000000
H     4.046000000    -2.452000000     3.418000000
H     5.070000000    -1.827000000     4.341000000
O     1.450000000     5.138000000     5.335000000
H     2.095000000     4.617000000     5.814000000
H     1.253000000     4.617000000     4.556000000
O     3.708000000     1.107000000    -2.894000000
H     2.838000000     0.833000000    -3.188000000
H     3.581000000     1.998000000    -2.570000000
O     0.047000000    -2.067000000     5.104000000
H    -0.195000000    -2.855000000     5.590000000
H     0.715000000    -2.362000000     4.485000000
O    -4.492000000     4.346000000     1.691000000
H    -5.426000000     4.170000000     1.801000000
H    -4.163000000     4.462000000     2.582000000
O     1.367000000    -4.020000000    -8.003000000
H     0.582000000    -3.868000000    -7.477000000
H     1.977000000    -4.452000000    -7.404000000
O    -2.796000000    -7.170000000     0.082000000
H    -3.682000000    -6.841000000     0.236000000
H    -2.293000000    -6.396000000    -0.170000000
O     0.299000000     1.526000000    -5.916000000
H     0.519000000     0.998000000    -5.148000000
H     1.043000000     1.411000000    -6.507000000
O     1.530000000     3.168000000    -3.790000000
H     1.018000000     2.519000000    -4.273000000
H     0.910000000     3.874000000    -3.607000000
O    -2.725000000     2.420000000     0.622000000
H    -2.081000000     2.139000000     1.271000000
H    -3.171000000     3.161000000     1.032000000
O    -4.938000000    -4.514000000     1.484000000
H    -4.845000000    -3.580000000     1.673000000
H    -4.893000000    -4.571000000     0.530000000
O    -0.721000000    -5.556000000    -5.771000000
H    -1.407000000    -5.631000000    -5.108000000
H    -1.056000000    -6.051000000    -6.519000000
O    -3.264000000    -0.063000000    -1.557000000
H    -3.290000000     0.425000000    -0.734000000
H    -2.570000000    -0.709000000    -1.431000000
O     5.099000000     1.356000000     1.662000000
H     4.306000000     1.590000000     1.180000000
H     5.816000000     1.638000000     1.095000000
O    -2.364000000    -1.893000000    -3.965000000
H    -2.762000000    -1.030000000    -3.849000000
H    -1.487000000    -1.804000000    -3.592000000
O     3.960000000    -0.910000000    -5.601000000
H     3.754000000    -0.324000000    -4.873000000
H     4.647000000    -0.453000000    -6.088000000
O     0.847000000     6.901000000    -1.722000000
H     0.244000000     6.592000000    -2.398000000
H     0.843000000     7.854000000    -1.814000000
O     3.393000000     3.924000000     3.222000000
H     2.612000000     4.453000000     3.058000000
H     3.864000000     3.926000000     2.389000000
O    -1.001000000    -5.084000000    -0.489000000
H    -0.143000000    -4.779000000    -0.195000000
H    -1.131000000    -4.654000000    -1.334000000
O     1.285000000    -1.639000000    -6.074000000
H     2.225000000    -1.479000000    -5.992000000
H     0.951000000    -1.574000000    -5.179000000
O    -2.679000000    -2.681000000     4.106000000
H    -2.952000000    -3.078000000     4.934000000
H    -1.895000000    -2.178000000     4.329000000
O     2.932000000     3.032000000     0.435000000
H     3.110000000     3.558000000    -0.344000000
H     2.070000000     2.648000000     0.274000000
O    -0.660000000     5.970000000    -3.949000000
H    -1.312000000     5.270000000    -3.929000000
H    -1.137000000     6.732000000    -4.276000000
O    -2.887000000    -0.069000000    -6.735000000
H    -2.646000000     0.723000000    -7.215000000
H    -2.072000000    -0.361000000    -6.329000000
O     3.735000000    -1.561000000    -1.618000000
H     4.164000000    -1.295000000    -0.805000000
H     3.427000000    -0.742000000    -2.006000000
O    -4.520000000    -4.643000000    -1.074000000
H    -3.678000000    -4.667000000    -1.528000000
H    -5.106000000    -4.191000000    -1.680000000
O     0.496000000    -4.062000000    -3.521000000
H     0.218000000    -3.151000000    -3.609000000
H     0.380000000    -4.435000000    -4.395000000
