158
-3036.54647
C     1.255000000     0.867000000    -0.303000000
H     2.143000000     1.493000000    -0.331000000
C     0.361000000     1.017000000     0.739000000
H     0.493000000     1.754000000     1.527000000
C    -0.726000000     0.176000000     0.915000000
H    -1.360000000     0.363000000     1.666000000
C    -1.052000000    -0.799000000     0.019000000
H    -1.948000000    -1.379000000     0.224000000
C    -0.211000000    -0.966000000    -1.112000000
H    -0.447000000    -1.667000000    -1.909000000
C     0.986000000    -0.221000000    -1.187000000
C     1.899000000    -0.456000000    -2.333000000
O     3.105000000    -0.167000000    -2.118000000
O     1.518000000    -1.136000000    -3.299000000
O    -4.954000000    -0.106000000    -2.393000000
H    -4.533000000    -0.167000000    -1.535000000
H    -4.667000000    -0.892000000    -2.857000000
O     4.991000000     3.416000000    -4.869000000
H     4.154000000     3.045000000    -4.589000000
H     5.290000000     2.832000000    -5.566000000
O     1.348000000     0.240000000     4.767000000
H     2.219000000     0.548000000     4.515000000
H     1.392000000    -0.710000000     4.664000000
O    -4.008000000     0.501000000     0.527000000
H    -3.123000000     0.864000000     0.562000000
H    -4.576000000     1.232000000     0.771000000
O    -0.124000000     0.341000000     7.331000000
H    -0.578000000     0.487000000     6.501000000
H     0.043000000     1.220000000     7.671000000
O     4.843000000    -3.094000000    -2.107000000
H     3.982000000    -3.129000000    -2.524000000
H     4.801000000    -2.329000000    -1.534000000
O    -2.490000000     2.008000000     3.787000000
H    -2.863000000     1.130000000     3.709000000
H    -3.103000000     2.479000000     4.351000000
O    -4.868000000     2.814000000     1.560000000
H    -5.191000000     2.392000000     2.356000000
H    -5.344000000     3.644000000     1.519000000
O    -0.852000000    -5.226000000    -3.681000000
H    -0.466000000    -5.941000000    -4.188000000
H    -0.739000000    -4.452000000    -4.233000000
O    -2.120000000    -0.883000000    -6.050000000
H    -1.822000000    -0.719000000    -6.945000000
H    -2.602000000    -0.092000000    -5.809000000
O     2.065000000    -4.856000000    -0.662000000
H     2.329000000    -4.346000000    -1.428000000
H     2.329000000    -4.319000000     0.086000000
O    -5.371000000    -2.320000000     1.132000000
H    -6.189000000    -2.197000000     0.650000000
H    -4.950000000    -1.461000000     1.111000000
O    -3.631000000     3.212000000     6.133000000
H    -4.403000000     3.715000000     6.392000000
H    -2.905000000     3.832000000     6.205000000
O    -2.194000000     6.672000000     2.049000000
H    -1.916000000     6.888000000     1.158000000
H    -2.120000000     5.719000000     2.097000000
O    -3.491000000     1.204000000    -4.809000000
H    -3.495000000     0.761000000    -3.960000000
H    -3.675000000     2.121000000    -4.601000000
O    -0.339000000    -2.547000000     3.055000000
H    -0.307000000    -2.314000000     2.127000000
H    -1.252000000    -2.788000000     3.210000000
O    -5.891000000     1.494000000     3.721000000
H    -6.282000000     1.664000000     4.578000000
H    -5.354000000     0.713000000     3.854000000
O     1.331000000     4.689000000    -2.728000000
H     2.059000000     4.070000000    -2.782000000
H     0.660000000     4.227000000    -2.225000000
O     2.052000000     4.953000000     1.531000000
H     2.790000000     5.190000000     0.971000000
H     1.996000000     4.000000000     1.464000000
O     4.048000000     3.703000000     5.327000000
H     4.865000000     3.331000000     5.660000000
H     3.725000000     3.052000000     4.704000000
O     5.716000000     0.506000000    -2.794000000
H     4.810000000     0.245000000    -2.955000000
H     6.101000000     0.588000000    -3.666000000
O     2.049000000    -2.684000000     5.032000000
H     2.944000000    -3.024000000     5.047000000
H     1.725000000    -2.902000000     4.158000000
O    -0.521000000    -5.547000000    -0.900000000
H     0.428000000    -5.458000000    -0.814000000
H    -0.703000000    -5.304000000    -1.808000000
O     1.301000000     0.289000000    -7.988000000
H     1.714000000    -0.042000000    -7.191000000
H     0.396000000    -0.017000000    -7.934000000
O     4.541000000     4.215000000     0.043000000
H     4.171000000     4.901000000    -0.512000000
H     5.005000000     4.689000000     0.733000000
O     2.796000000     2.340000000    -4.039000000
H     2.985000000     1.553000000    -3.527000000
H     2.047000000     2.097000000    -4.583000000
O     7.897000000    -0.010000000    -1.167000000
H     7.520000000     0.412000000    -0.395000000
H     7.243000000     0.119000000    -1.854000000
O     1.141000000     3.780000000     6.390000000
H     0.753000000     3.567000000     5.541000000
H     2.081000000     3.832000000     6.217000000
O     3.810000000     1.300000000     3.773000000
H     4.507000000     0.848000000     4.249000000
H     4.197000000     1.506000000     2.922000000
O    -2.180000000     3.816000000     1.345000000
H    -2.195000000     3.323000000     2.166000000
H    -3.072000000     3.744000000     1.006000000
O    -5.912000000    -5.061000000     0.422000000
H    -5.742000000    -4.165000000     0.713000000
H    -6.661000000    -4.983000000    -0.169000000
O     1.746000000    -4.439000000    -5.880000000
H     0.833000000    -4.416000000    -6.166000000
H     2.235000000    -4.698000000    -6.662000000
O    -0.495000000     3.162000000    -1.309000000
H    -1.167000000     3.597000000    -0.784000000
H    -0.080000000     2.547000000    -0.704000000
O     4.791000000     1.615000000     1.352000000
H     4.671000000     2.382000000     0.792000000
H     5.734000000     1.451000000     1.334000000
O    -0.537000000    -2.639000000    -4.638000000
H    -1.063000000    -2.066000000    -5.196000000
H     0.173000000    -2.080000000    -4.323000000
O     5.175000000    -2.071000000    -4.817000000
H     5.186000000    -2.438000000    -3.933000000
H     5.975000000    -1.549000000    -4.870000000
O     0.737000000     5.992000000     3.908000000
H    -0.217000000     5.914000000     3.896000000
H     1.016000000     5.651000000     3.058000000
O     0.210000000     2.624000000     4.153000000
H     0.456000000     1.715000000     4.322000000
H    -0.746000000     2.628000000     4.206000000
O     0.221000000    -5.287000000     2.114000000
H    -0.316000000    -5.376000000     1.327000000
H     0.147000000    -4.362000000     2.350000000
O     2.517000000    -0.715000000    -5.727000000
H     3.285000000    -1.284000000    -5.788000000
H     2.205000000    -0.831000000    -4.829000000
O    -3.819000000    -0.460000000     4.422000000
H    -4.231000000    -0.451000000     5.286000000
H    -3.595000000    -1.378000000     4.273000000
O    -3.275000000    -2.824000000     3.004000000
H    -3.993000000    -2.837000000     2.370000000
H    -3.495000000    -3.516000000     3.628000000
O    -4.164000000    -1.793000000    -4.290000000
H    -3.415000000    -1.643000000    -4.866000000
H    -4.926000000    -1.566000000    -4.824000000
O     4.227000000    -0.918000000     0.060000000
H     3.711000000    -0.678000000    -0.709000000
H     4.437000000    -0.083000000     0.478000000
O    -0.904000000     2.231000000    -3.963000000
H    -1.096000000     2.411000000    -3.043000000
H    -0.729000000     1.291000000    -3.993000000
O     2.418000000    -2.724000000     1.083000000
H     2.206000000    -2.064000000     1.744000000
H     3.271000000    -2.456000000     0.742000000
O    -3.574000000    -4.789000000    -3.518000000
H    -3.502000000    -3.868000000    -3.767000000
H    -2.687000000    -5.134000000    -3.617000000
O     2.403000000    -3.606000000    -3.174000000
H     2.068000000    -2.710000000    -3.178000000
H     2.282000000    -3.911000000    -4.073000000
