158
-3028.38859
C     0.970000000    -0.857000000    -0.686000000
H     1.777000000    -1.400000000    -1.172000000
C     1.175000000     0.448000000    -0.229000000
H     2.158000000     0.871000000    -0.422000000
C     0.160000000     1.138000000     0.477000000
H     0.360000000     2.105000000     0.798000000
C    -1.026000000     0.532000000     0.720000000
H    -1.822000000     1.032000000     1.266000000
C    -1.270000000    -0.710000000     0.102000000
H    -2.218000000    -1.209000000     0.289000000
C    -0.332000000    -1.450000000    -0.576000000
C    -0.534000000    -2.827000000    -1.142000000
O     0.428000000    -3.344000000    -1.605000000
O    -1.612000000    -3.378000000    -1.164000000
O    -4.980000000     4.510000000    -1.754000000
H    -5.508000000     3.786000000    -1.416000000
H    -4.086000000     4.301000000    -1.484000000
O    -2.038000000    -2.059000000     5.878000000
H    -1.849000000    -1.688000000     5.016000000
H    -1.573000000    -1.489000000     6.491000000
O    -4.655000000    -1.355000000     1.623000000
H    -4.815000000    -1.016000000     0.742000000
H    -5.123000000    -2.189000000     1.647000000
O    -1.134000000     4.665000000     1.168000000
H    -1.371000000     5.589000000     1.087000000
H    -0.228000000     4.623000000     0.863000000
O     4.461000000     1.496000000     2.300000000
H     3.517000000     1.337000000     2.310000000
H     4.582000000     2.179000000     1.641000000
O    -2.840000000     1.258000000     4.342000000
H    -3.351000000     2.043000000     4.143000000
H    -2.586000000     1.364000000     5.258000000
O    -1.821000000     3.455000000    -3.687000000
H    -1.059000000     2.911000000    -3.886000000
H    -2.033000000     3.245000000    -2.777000000
O     5.630000000    -0.144000000     0.443000000
H     6.453000000     0.240000000     0.745000000
H     4.954000000     0.314000000     0.942000000
O     4.845000000     5.987000000     0.513000000
H     4.264000000     5.893000000    -0.241000000
H     4.704000000     6.885000000     0.814000000
O    -1.445000000    -3.269000000     2.114000000
H    -1.881000000    -2.651000000     2.700000000
H    -1.989000000    -3.276000000     1.326000000
O     0.836000000    -7.818000000     0.521000000
H     1.259000000    -6.962000000     0.444000000
H     0.534000000    -7.854000000     1.429000000
O    -3.657000000    -4.246000000     0.159000000
H    -2.838000000    -3.970000000    -0.252000000
H    -3.764000000    -5.159000000    -0.109000000
O     2.729000000     3.838000000     2.218000000
H     2.247000000     3.190000000     2.731000000
H     2.902000000     4.551000000     2.834000000
O    -1.877000000    -4.405000000    -5.078000000
H    -2.143000000    -3.556000000    -5.432000000
H    -2.612000000    -4.677000000    -4.529000000
O     5.256000000     0.361000000    -3.360000000
H     5.839000000    -0.227000000    -2.879000000
H     5.244000000     1.165000000    -2.841000000
O    -1.668000000    -5.795000000     3.196000000
H    -2.612000000    -5.956000000     3.201000000
H    -1.564000000    -5.001000000     2.671000000
O    -2.560000000     3.108000000    -0.830000000
H    -2.128000000     3.366000000    -0.015000000
H    -3.230000000     2.482000000    -0.558000000
O     5.167000000     1.321000000     4.890000000
H     5.124000000     2.174000000     5.322000000
H     4.652000000     1.431000000     4.090000000
O    -0.415000000     4.829000000     6.190000000
H    -1.314000000     5.113000000     6.024000000
H    -0.261000000     4.134000000     5.550000000
O    -2.681000000    -1.132000000     3.320000000
H    -3.470000000    -1.166000000     2.779000000
H    -2.726000000    -0.281000000     3.756000000
O     0.743000000     1.887000000    -3.590000000
H     0.145000000     1.182000000    -3.341000000
H     0.707000000     1.906000000    -4.546000000
O     1.275000000    -3.341000000     2.728000000
H     0.337000000    -3.189000000     2.619000000
H     1.380000000    -3.537000000     3.659000000
O    -0.724000000     3.484000000     3.786000000
H    -1.111000000     3.868000000     2.999000000
H    -1.454000000     3.048000000     4.224000000
O     1.151000000    -4.926000000     0.468000000
H     1.378000000    -4.284000000     1.141000000
H     0.633000000    -4.434000000    -0.168000000
O     3.264000000    -3.761000000    -2.063000000
H     2.391000000    -3.379000000    -1.978000000
H     3.783000000    -3.325000000    -1.388000000
O     5.433000000     4.107000000     3.344000000
H     4.958000000     4.937000000     3.365000000
H     5.096000000     3.657000000     2.570000000
O    -1.113000000    -0.097000000    -3.225000000
H    -0.505000000    -0.618000000    -3.749000000
H    -0.800000000    -0.195000000    -2.326000000
O     3.254000000     0.074000000    -5.183000000
H     3.290000000    -0.880000000    -5.244000000
H     3.951000000     0.302000000    -4.567000000
O     2.827000000    -1.180000000     1.888000000
H     2.447000000    -2.050000000     2.011000000
H     2.190000000    -0.715000000     1.346000000
O    -5.034000000     1.868000000    -0.385000000
H    -5.765000000     2.352000000    -0.002000000
H    -5.411000000     1.025000000    -0.637000000
O    -1.147000000     7.426000000     1.041000000
H    -2.072000000     7.619000000     0.888000000
H    -0.684000000     8.199000000     0.715000000
O    -3.690000000     0.901000000    -3.803000000
H    -2.759000000     0.696000000    -3.727000000
H    -3.757000000     1.817000000    -3.533000000
O     4.733000000    -3.623000000    -4.288000000
H     4.130000000    -3.378000000    -4.989000000
H     4.188000000    -3.648000000    -3.501000000
O    -1.598000000    -6.286000000    -1.277000000
H    -1.473000000    -5.340000000    -1.191000000
H    -0.766000000    -6.664000000    -0.992000000
O     1.639000000     1.439000000     3.712000000
H     1.660000000     1.271000000     4.654000000
H     0.853000000     1.969000000     3.580000000
O     5.596000000     3.223000000     0.643000000
H     5.423000000     2.974000000    -0.265000000
H     5.461000000     4.171000000     0.661000000
O     2.231000000    -6.809000000    -4.446000000
H     2.875000000    -6.785000000    -3.738000000
H     1.466000000    -6.358000000    -4.088000000
O    -3.328000000    -2.019000000    -2.511000000
H    -2.804000000    -1.529000000    -3.145000000
H    -2.699000000    -2.596000000    -2.077000000
O    -5.378000000    -0.788000000    -1.070000000
H    -6.031000000    -1.124000000    -1.684000000
H    -4.559000000    -1.201000000    -1.343000000
O     0.699000000    -1.705000000    -4.125000000
H     0.833000000    -2.401000000    -3.482000000
H     1.356000000    -1.873000000    -4.800000000
O    -3.718000000     3.401000000     3.109000000
H    -3.860000000     4.259000000     2.707000000
H    -4.589000000     3.007000000     3.146000000
O     5.524000000    -2.564000000    -0.805000000
H     5.246000000    -1.821000000    -0.270000000
H     6.004000000    -2.170000000    -1.533000000
O    -7.552000000    -0.243000000     1.310000000
H    -7.238000000     0.588000000     1.666000000
H    -6.756000000    -0.714000000     1.062000000
O    -4.288000000    -4.236000000    -3.735000000
H    -4.624000000    -4.914000000    -3.149000000
H    -4.003000000    -3.534000000    -3.150000000
O     0.306000000    -5.171000000    -3.613000000
H    -0.484000000    -4.677000000    -3.832000000
H     0.675000000    -4.710000000    -2.859000000
O     3.589000000     6.030000000    -2.020000000
H     2.700000000     5.755000000    -1.797000000
H     3.606000000     6.033000000    -2.977000000
O    -6.249000000    -3.651000000     1.054000000
H    -6.812000000    -3.652000000     0.280000000
H    -5.402000000    -3.961000000     0.736000000
O     1.560000000     3.962000000    -1.550000000
H     2.053000000     3.265000000    -1.116000000
H     1.123000000     3.526000000    -2.281000000
