158
-3038.28587
C    -0.470000000    -1.247000000    -0.618000000
H    -1.125000000    -2.044000000    -0.961000000
C    -0.450000000    -0.033000000    -1.251000000
H    -0.845000000     0.125000000    -2.251000000
C     0.072000000     1.088000000    -0.609000000
H     0.119000000     2.099000000    -1.131000000
C     0.645000000     0.972000000     0.639000000
H     1.029000000     1.860000000     1.134000000
C     0.589000000    -0.233000000     1.366000000
H     0.965000000    -0.402000000     2.372000000
C     0.052000000    -1.396000000     0.721000000
C    -0.040000000    -2.769000000     1.365000000
O    -0.496000000    -3.771000000     0.834000000
O     0.343000000    -2.796000000     2.565000000
O     3.697000000    -5.973000000     2.085000000
H     2.741000000    -5.986000000     2.115000000
H     3.954000000    -5.448000000     2.843000000
O     0.160000000    -1.736000000     5.018000000
H    -0.219000000    -2.530000000     5.395000000
H     0.291000000    -1.948000000     4.094000000
O    -5.166000000    -4.881000000    -1.450000000
H    -4.394000000    -4.657000000    -0.930000000
H    -4.841000000    -4.934000000    -2.349000000
O     4.107000000    -4.415000000     4.238000000
H     3.678000000    -3.667000000     3.823000000
H     3.548000000    -4.627000000     4.986000000
O    -1.718000000     3.548000000     1.677000000
H    -2.596000000     3.169000000     1.702000000
H    -1.340000000     3.335000000     2.530000000
O     2.957000000     0.054000000    -0.961000000
H     2.019000000     0.238000000    -0.901000000
H     3.309000000     0.774000000    -1.485000000
O     4.039000000    -2.132000000     0.010000000
H     4.977000000    -1.975000000    -0.097000000
H     3.620000000    -1.405000000    -0.449000000
O     3.754000000    -0.251000000    -4.281000000
H     3.985000000     0.560000000    -3.829000000
H     4.263000000    -0.227000000    -5.091000000
O    -2.112000000    -5.014000000     3.160000000
H    -2.798000000    -5.416000000     2.627000000
H    -1.567000000    -4.540000000     2.532000000
O    -4.039000000    -2.395000000     0.946000000
H    -4.233000000    -1.690000000     0.328000000
H    -3.348000000    -2.040000000     1.504000000
O     0.380000000     0.077000000    -4.493000000
H    -0.525000000    -0.213000000    -4.605000000
H     0.901000000    -0.582000000    -4.951000000
O     0.654000000     4.460000000     0.210000000
H     0.155000000     3.652000000     0.332000000
H     0.117000000     5.138000000     0.619000000
O    -3.211000000    -6.747000000     1.034000000
H    -4.047000000    -6.425000000     1.372000000
H    -2.865000000    -6.019000000     0.518000000
O     2.082000000    -4.532000000     5.997000000
H     1.965000000    -4.592000000     6.945000000
H     1.241000000    -4.213000000     5.671000000
O     4.429000000     2.181000000    -2.413000000
H     4.333000000     2.714000000    -1.624000000
H     5.184000000     2.557000000    -2.866000000
O     4.694000000    -0.099000000     2.742000000
H     4.115000000    -0.826000000     2.512000000
H     4.166000000     0.685000000     2.591000000
O    -0.649000000    -4.181000000     5.665000000
H    -0.861000000    -4.470000000     4.777000000
H    -1.341000000    -4.555000000     6.211000000
O     1.306000000     3.397000000     3.709000000
H     1.674000000     3.690000000     4.543000000
H     0.998000000     4.199000000     3.287000000
O    -2.515000000    -0.927000000     2.694000000
H    -1.684000000    -1.156000000     3.110000000
H    -3.121000000    -0.796000000     3.424000000
O    -1.272000000     6.837000000    -4.117000000
H    -0.912000000     5.999000000    -4.408000000
H    -1.130000000     6.843000000    -3.170000000
O    -0.441000000     4.157000000    -3.844000000
H    -1.317000000     3.773000000    -3.876000000
H     0.119000000     3.451000000    -3.521000000
O     0.882000000    -5.592000000     2.608000000
H     0.752000000    -4.653000000     2.740000000
H     0.241000000    -5.831000000     1.938000000
O    -1.307000000     0.273000000     6.426000000
H    -2.191000000    -0.057000000     6.262000000
H    -0.733000000    -0.457000000     6.193000000
O    -2.197000000    -5.008000000    -0.816000000
H    -1.743000000    -4.383000000    -0.252000000
H    -2.109000000    -4.645000000    -1.697000000
O     2.371000000    -1.216000000     6.608000000
H     2.571000000    -0.280000000     6.611000000
H     1.633000000    -1.302000000     6.005000000
O     0.982000000    -4.323000000    -1.634000000
H     0.703000000    -3.835000000    -0.860000000
H     1.613000000    -3.748000000    -2.066000000
O     3.470000000     2.325000000     2.265000000
H     3.220000000     2.656000000     1.402000000
H     2.694000000     2.463000000     2.808000000
O    -0.725000000     6.698000000     1.039000000
H    -0.239000000     7.364000000     0.553000000
H    -0.305000000     6.675000000     1.899000000
O     5.986000000     3.467000000     2.352000000
H     6.287000000     3.815000000     1.512000000
H     5.192000000     2.977000000     2.137000000
O    -3.027000000     2.713000000    -3.746000000
H    -3.416000000     3.551000000    -3.997000000
H    -3.493000000     2.064000000    -4.274000000
O    -3.406000000     0.116000000    -0.669000000
H    -3.029000000    -0.119000000    -1.517000000
H    -2.648000000     0.306000000    -0.115000000
O     3.313000000     4.548000000    -4.375000000
H     3.939000000     4.594000000    -3.652000000
H     2.786000000     3.771000000    -4.187000000
O     3.173000000    -2.344000000     2.663000000
H     2.237000000    -2.543000000     2.686000000
H     3.366000000    -2.208000000     1.736000000
O    -4.606000000     2.296000000    -1.452000000
H    -4.203000000     1.497000000    -1.112000000
H    -4.160000000     2.454000000    -2.285000000
O     0.818000000    -6.306000000    -3.438000000
H     0.503000000    -7.142000000    -3.092000000
H     0.831000000    -5.723000000    -2.678000000
O    -1.125000000     2.346000000     4.401000000
H    -1.071000000     1.497000000     4.839000000
H    -0.247000000     2.717000000     4.488000000
O     3.315000000     3.975000000    -0.211000000
H     2.366000000     3.961000000    -0.335000000
H     3.487000000     4.804000000     0.236000000
O    -3.012000000    -1.421000000    -3.524000000
H    -2.565000000    -0.990000000    -4.252000000
H    -2.520000000    -2.230000000    -3.386000000
O    -5.718000000    -0.833000000    -2.639000000
H    -6.207000000    -1.654000000    -2.691000000
H    -4.850000000    -1.090000000    -2.326000000
O    -1.824000000    -1.130000000    -6.011000000
H    -1.013000000    -1.408000000    -6.436000000
H    -2.253000000    -0.568000000    -6.656000000
O    -4.350000000     3.009000000     1.603000000
H    -5.167000000     2.930000000     2.094000000
H    -4.624000000     3.252000000     0.719000000
O     2.949000000    -2.948000000    -2.766000000
H     3.202000000    -2.359000000    -2.056000000
H     2.734000000    -2.367000000    -3.495000000
O    -4.948000000    -4.996000000     2.094000000
H    -5.713000000    -4.803000000     2.636000000
H    -4.781000000    -4.183000000     1.617000000
O    -2.312000000    -4.237000000    -3.334000000
H    -3.175000000    -4.512000000    -3.644000000
H    -1.696000000    -4.675000000    -3.922000000
O     0.268000000    -6.582000000    -0.160000000
H     0.695000000    -5.877000000    -0.647000000
H    -0.658000000    -6.338000000    -0.149000000
O    -2.613000000     4.999000000    -0.530000000
H    -1.968000000     5.678000000    -0.328000000
H    -2.549000000     4.383000000     0.199000000
O     1.816000000     2.299000000    -3.572000000
H     2.642000000     2.044000000    -3.161000000
H     1.448000000     1.478000000    -3.901000000
O     0.833000000     5.949000000    -2.481000000
H     0.476000000     5.202000000    -2.961000000
H     1.038000000     5.600000000    -1.613000000
