158
-3036.83909
C     0.925000000    -1.138000000     0.331000000
H     1.597000000    -1.969000000     0.527000000
C     0.271000000    -0.920000000    -0.913000000
H     0.430000000    -1.660000000    -1.692000000
C    -0.541000000     0.208000000    -1.076000000
H    -0.887000000     0.531000000    -2.089000000
C    -0.799000000     1.078000000    -0.043000000
H    -1.437000000     1.938000000    -0.230000000
C    -0.256000000     0.797000000     1.220000000
H    -0.489000000     1.410000000     2.087000000
C     0.636000000    -0.302000000     1.409000000
C     1.333000000    -0.450000000     2.703000000
O     2.524000000    -0.922000000     2.658000000
O     1.013000000     0.182000000     3.654000000
O    -2.291000000    -0.211000000    -4.485000000
H    -2.045000000    -0.711000000    -5.263000000
H    -1.929000000     0.662000000    -4.638000000
O     1.704000000     0.148000000     6.341000000
H     2.337000000    -0.566000000     6.417000000
H     1.440000000     0.136000000     5.421000000
O    -3.072000000     0.348000000     4.282000000
H    -3.686000000    -0.366000000     4.109000000
H    -3.355000000     1.054000000     3.701000000
O    -3.420000000     3.627000000    -2.939000000
H    -3.246000000     4.317000000    -2.298000000
H    -3.886000000     2.953000000    -2.444000000
O    -1.844000000     4.531000000     2.117000000
H    -1.123000000     4.208000000     1.578000000
H    -1.874000000     5.471000000     1.939000000
O     4.643000000    -0.820000000    -0.906000000
H     4.296000000    -1.668000000    -1.184000000
H     5.021000000    -0.988000000    -0.042000000
O     0.965000000     2.819000000    -4.092000000
H     1.471000000     2.108000000    -3.698000000
H     1.576000000     3.554000000    -4.133000000
O     6.719000000    -1.371000000     4.875000000
H     5.848000000    -1.424000000     4.483000000
H     7.009000000    -2.281000000     4.940000000
O    -1.783000000    -2.744000000     0.587000000
H    -1.192000000    -3.492000000     0.501000000
H    -1.234000000    -1.982000000     0.403000000
O    -5.477000000    -2.856000000    -1.096000000
H    -5.146000000    -1.968000000    -0.959000000
H    -5.358000000    -3.288000000    -0.250000000
O     1.104000000     5.135000000     4.890000000
H     1.611000000     5.261000000     4.089000000
H     0.556000000     4.371000000     4.709000000
O     1.354000000    -4.670000000    -4.783000000
H     1.554000000    -5.356000000    -4.146000000
H     0.398000000    -4.639000000    -4.809000000
O     2.373000000     0.642000000    -3.357000000
H     1.799000000    -0.114000000    -3.480000000
H     3.258000000     0.287000000    -3.440000000
O    -1.660000000    -1.403000000    -6.830000000
H    -1.399000000    -2.054000000    -7.481000000
H    -1.371000000    -0.568000000    -7.198000000
O     4.093000000    -0.139000000     4.601000000
H     3.580000000    -0.486000000     3.871000000
H     3.571000000     0.590000000     4.935000000
O     3.392000000    -2.866000000     4.456000000
H     3.189000000    -2.264000000     3.739000000
H     3.705000000    -2.301000000     5.162000000
O    -3.812000000     2.148000000     2.397000000
H    -3.528000000     2.385000000     1.514000000
H    -3.933000000     2.987000000     2.842000000
O    -3.635000000    -4.424000000    -2.404000000
H    -4.272000000    -4.005000000    -1.825000000
H    -3.569000000    -5.322000000    -2.078000000
O    -1.631000000    -4.489000000     4.023000000
H    -1.095000000    -4.482000000     3.230000000
H    -1.024000000    -4.255000000     4.724000000
O     3.760000000     1.198000000     1.195000000
H     4.663000000     1.251000000     1.508000000
H     3.692000000     0.325000000     0.808000000
O    -4.217000000     0.585000000    -7.027000000
H    -3.954000000     1.409000000    -6.617000000
H    -3.504000000    -0.021000000    -6.826000000
O    -2.683000000     3.925000000     4.644000000
H    -1.830000000     3.501000000     4.740000000
H    -2.658000000     4.321000000     3.773000000
O     0.951000000     0.318000000    -6.224000000
H     1.907000000     0.308000000    -6.271000000
H     0.729000000    -0.448000000    -5.695000000
O     6.504000000     1.243000000     2.114000000
H     7.415000000     1.410000000     2.355000000
H     6.456000000     0.293000000     2.002000000
O    -1.580000000     2.718000000    -5.019000000
H    -0.669000000     2.706000000    -4.724000000
H    -2.076000000     3.008000000    -4.253000000
O    -0.157000000     5.112000000     0.058000000
H    -0.699000000     5.564000000    -0.589000000
H     0.739000000     5.372000000    -0.157000000
O     4.755000000    -5.283000000     4.558000000
H     4.468000000    -5.552000000     5.431000000
H     4.387000000    -4.406000000     4.445000000
O     4.867000000    -1.468000000     1.653000000
H     3.967000000    -1.316000000     1.941000000
H     4.961000000    -2.420000000     1.651000000
O    -0.042000000    -4.851000000    -1.100000000
H     0.724000000    -5.177000000    -1.573000000
H    -0.525000000    -4.341000000    -1.749000000
O     0.240000000    -4.555000000     1.878000000
H     0.190000000    -4.758000000     0.944000000
H     1.101000000    -4.875000000     2.147000000
O     2.580000000     2.703000000    -1.197000000
H     2.167000000     2.074000000    -1.788000000
H     3.079000000     2.164000000    -0.584000000
O    -0.992000000     0.883000000    -7.811000000
H    -0.122000000     0.834000000    -7.416000000
H    -1.248000000     1.800000000    -7.715000000
O     0.815000000    -1.525000000    -4.311000000
H     0.003000000    -1.785000000    -3.875000000
H     1.153000000    -2.337000000    -4.690000000
O     3.893000000    -3.273000000    -1.438000000
H     3.979000000    -4.148000000    -1.061000000
H     3.782000000    -3.426000000    -2.376000000
O    -4.284000000     4.581000000    -5.668000000
H    -4.733000000     5.301000000    -5.225000000
H    -4.133000000     3.933000000    -4.980000000
O    -4.064000000    -0.362000000     0.001000000
H    -3.502000000     0.305000000    -0.392000000
H    -3.998000000    -0.205000000     0.943000000
O    -0.256000000     2.782000000     4.443000000
H     0.036000000     1.874000000     4.525000000
H     0.067000000     3.061000000     3.587000000
O    -2.093000000     5.891000000    -1.764000000
H    -2.787000000     5.852000000    -1.106000000
H    -2.207000000     6.745000000    -2.181000000
O     4.007000000    -5.511000000     2.055000000
H     4.260000000    -5.920000000     2.882000000
H     4.772000000    -4.995000000     1.799000000
O    -1.043000000    -0.748000000     5.565000000
H    -1.841000000    -0.380000000     5.186000000
H    -0.362000000    -0.557000000     4.920000000
O     1.584000000    -4.755000000     4.735000000
H     0.992000000    -4.156000000     5.190000000
H     2.398000000    -4.261000000     4.640000000
O     2.461000000     3.081000000     2.862000000
H     2.716000000     2.271000000     2.420000000
H     3.004000000     3.757000000     2.456000000
O    -1.318000000    -3.378000000    -3.246000000
H    -1.425000000    -3.965000000    -3.995000000
H    -2.169000000    -3.391000000    -2.808000000
O    -5.004000000     0.651000000    -4.129000000
H    -4.146000000     0.229000000    -4.099000000
H    -4.972000000     1.310000000    -3.436000000
O    -5.017000000     1.689000000    -1.662000000
H    -5.406000000     2.462000000    -1.252000000
H    -5.345000000     0.953000000    -1.146000000
O     3.541000000     2.864000000     5.426000000
H     2.939000000     2.829000000     6.169000000
H     2.975000000     2.806000000     4.656000000
O     2.180000000     2.345000000     7.711000000
H     2.220000000     1.435000000     7.417000000
H     1.277000000     2.612000000     7.542000000
O    -0.390000000    -3.372000000     6.304000000
H     0.169000000    -3.338000000     7.080000000
H    -0.651000000    -2.463000000     6.157000000
