158
-3023.50418
C     0.477000000    -1.360000000     0.216000000
H     0.695000000    -2.420000000     0.319000000
C     0.358000000    -0.690000000    -1.040000000
H     0.564000000    -1.141000000    -2.007000000
C    -0.091000000     0.554000000    -1.103000000
H    -0.186000000     1.137000000    -2.058000000
C    -0.434000000     1.198000000     0.060000000
H    -0.802000000     2.220000000     0.017000000
C    -0.292000000     0.626000000     1.306000000
H    -0.549000000     1.163000000     2.216000000
C     0.154000000    -0.709000000     1.429000000
C     0.316000000    -1.500000000     2.730000000
O     0.959000000    -2.547000000     2.738000000
O     0.014000000    -0.946000000     3.771000000
O    -2.374000000    -1.780000000    -4.321000000
H    -2.370000000    -0.841000000    -4.131000000
H    -2.926000000    -2.160000000    -3.638000000
O    -2.890000000    -1.335000000     7.637000000
H    -2.868000000    -0.484000000     7.199000000
H    -2.835000000    -1.972000000     6.925000000
O    -1.960000000    -2.398000000     5.254000000
H    -2.678000000    -2.313000000     4.627000000
H    -1.171000000    -2.230000000     4.739000000
O    -0.739000000     7.371000000    -0.494000000
H    -0.981000000     6.869000000    -1.272000000
H    -1.453000000     8.000000000    -0.384000000
O    -2.331000000     0.949000000    -6.544000000
H    -2.288000000     1.357000000    -7.409000000
H    -2.951000000     0.228000000    -6.650000000
O    -0.126000000     1.527000000    -4.839000000
H    -0.577000000     1.019000000    -5.513000000
H     0.229000000     2.283000000    -5.306000000
O     1.132000000     3.481000000    -6.453000000
H     1.830000000     2.927000000    -6.803000000
H     1.100000000     4.230000000    -7.048000000
O    -3.098000000    -0.908000000    -1.331000000
H    -2.942000000    -1.560000000    -0.648000000
H    -2.402000000    -0.262000000    -1.210000000
O     2.141000000     2.431000000     2.012000000
H     1.496000000     2.716000000     2.659000000
H     1.633000000     2.291000000     1.213000000
O     0.885000000    -4.399000000    -3.026000000
H     1.671000000    -3.909000000    -2.784000000
H     0.485000000    -4.637000000    -2.190000000
O     2.355000000     0.274000000    -3.872000000
H     3.187000000     0.729000000    -4.000000000
H     1.908000000     0.779000000    -3.193000000
O     1.168000000    -1.276000000    -6.480000000
H     1.276000000    -0.644000000    -5.770000000
H     0.658000000    -1.987000000    -6.092000000
O     3.111000000    -0.660000000     4.085000000
H     2.952000000    -0.045000000     4.801000000
H     2.300000000    -0.650000000     3.576000000
O     1.537000000    -2.851000000     5.572000000
H     1.703000000    -3.124000000     4.670000000
H     1.355000000    -1.913000000     5.508000000
O    -2.813000000     2.191000000     4.437000000
H    -3.229000000     1.442000000     4.865000000
H    -3.532000000     2.647000000     4.000000000
O    -0.043000000     5.903000000     4.270000000
H    -0.856000000     6.361000000     4.484000000
H    -0.321000000     5.160000000     3.735000000
O    -1.379000000    -5.729000000     3.585000000
H    -1.980000000    -5.651000000     4.326000000
H    -0.714000000    -6.351000000     3.881000000
O     4.392000000     0.464000000     0.488000000
H     3.832000000    -0.310000000     0.428000000
H     4.318000000     0.742000000     1.401000000
O     4.058000000     4.016000000    -3.807000000
H     4.564000000     4.720000000    -4.213000000
H     4.584000000     3.229000000    -3.951000000
O     4.933000000    -2.994000000     3.832000000
H     5.378000000    -2.695000000     4.625000000
H     4.300000000    -2.303000000     3.638000000
O     0.329000000    -5.254000000     6.433000000
H     0.498000000    -6.095000000     6.008000000
H     0.827000000    -4.620000000     5.916000000
O    -0.912000000     4.799000000    -2.415000000
H    -1.409000000     4.138000000    -2.896000000
H    -0.032000000     4.430000000    -2.341000000
O    -2.157000000     6.749000000     2.563000000
H    -1.702000000     7.535000000     2.261000000
H    -2.081000000     6.133000000     1.834000000
O    -0.862000000    -3.203000000     8.492000000
H    -1.358000000    -2.534000000     8.018000000
H    -0.399000000    -3.687000000     7.808000000
O     2.493000000    -4.539000000     2.260000000
H     1.986000000    -3.735000000     2.371000000
H     3.315000000    -4.370000000     2.719000000
O    -0.075000000    -5.592000000    -0.877000000
H     0.473000000    -6.102000000    -0.280000000
H    -0.488000000    -4.933000000    -0.319000000
O    -0.574000000    -4.319000000     1.544000000
H    -0.941000000    -4.864000000     2.240000000
H     0.100000000    -3.797000000     1.979000000
O    -0.841000000     3.613000000     2.747000000
H    -1.181000000     3.951000000     1.919000000
H    -1.593000000     3.190000000     3.160000000
O    -0.103000000    -3.062000000    -5.142000000
H    -0.932000000    -2.657000000    -4.886000000
H     0.249000000    -3.421000000    -4.327000000
O     3.658000000    -5.951000000    -0.098000000
H     3.919000000    -6.801000000     0.256000000
H     3.067000000    -5.588000000     0.562000000
O     1.116000000     3.586000000     5.385000000
H     0.754000000     4.468000000     5.307000000
H     0.547000000     3.043000000     4.840000000
O    -5.760000000    -0.740000000    -1.519000000
H    -4.806000000    -0.683000000    -1.475000000
H    -6.030000000    -0.946000000    -0.624000000
O    -4.868000000     1.906000000    -4.804000000
H    -5.034000000     1.011000000    -4.507000000
H    -5.710000000     2.351000000    -4.706000000
O     3.093000000    -2.992000000    -2.816000000
H     2.769000000    -2.171000000    -3.186000000
H     3.766000000    -2.723000000    -2.191000000
O    -0.668000000     1.080000000     5.578000000
H    -0.479000000     0.429000000     4.903000000
H    -1.466000000     1.514000000     5.275000000
O    -4.891000000     3.356000000    -1.174000000
H    -4.186000000     3.851000000    -0.756000000
H    -4.584000000     3.212000000    -2.069000000
O    -2.851000000    -2.776000000     0.608000000
H    -3.698000000    -3.169000000     0.395000000
H    -2.245000000    -3.516000000     0.637000000
O    -2.600000000     3.053000000    -3.604000000
H    -3.460000000     2.779000000    -3.925000000
H    -2.056000000     2.268000000    -3.677000000
O     1.204000000    -6.982000000     1.087000000
H     1.018000000    -7.560000000     1.827000000
H     1.325000000    -6.119000000     1.483000000
O    -1.260000000     1.452000000     8.281000000
H    -1.215000000     0.972000000     7.454000000
H    -0.602000000     2.140000000     8.195000000
O     4.142000000     2.951000000    -0.504000000
H     3.986000000     2.008000000    -0.459000000
H     4.625000000     3.152000000     0.298000000
O     2.967000000     6.138000000    -1.867000000
H     2.382000000     6.228000000    -1.114000000
H     3.095000000     5.193000000    -1.959000000
O     2.111000000     1.025000000     6.085000000
H     1.203000000     0.747000000     5.964000000
H     2.071000000     1.982000000     6.079000000
O     4.454000000     3.106000000     3.525000000
H     3.776000000     2.649000000     3.027000000
H     5.025000000     2.408000000     3.848000000
O    -3.675000000    -2.229000000     3.135000000
H    -4.207000000    -2.992000000     2.910000000
H    -2.964000000    -2.235000000     2.494000000
O     1.505000000     3.193000000    -2.851000000
H     2.342000000     3.537000000    -3.162000000
H     1.192000000     2.639000000    -3.566000000
O    -2.148000000     4.500000000     0.371000000
H    -2.757000000     5.085000000    -0.080000000
H    -1.536000000     4.221000000    -0.310000000
O    -2.063000000     5.096000000    -5.930000000
H    -2.967000000     5.383000000    -5.800000000
H    -1.896000000     4.492000000    -5.206000000
