158
-3013.71157
C     1.153000000    -0.801000000     0.320000000
H     1.956000000    -1.529000000     0.395000000
C     0.720000000    -0.455000000    -0.951000000
H     1.333000000    -0.778000000    -1.789000000
C    -0.430000000     0.337000000    -1.097000000
H    -0.666000000     0.519000000    -2.157000000
C    -1.100000000     0.832000000     0.012000000
H    -2.037000000     1.311000000    -0.263000000
C    -0.641000000     0.510000000     1.287000000
H    -1.028000000     0.857000000     2.242000000
C     0.468000000    -0.338000000     1.473000000
C     1.066000000    -0.718000000     2.846000000
O     2.054000000    -1.341000000     2.896000000
O     0.457000000    -0.438000000     3.907000000
O    -4.901000000    -1.329000000    -3.875000000
H    -4.991000000    -2.282000000    -3.878000000
H    -4.887000000    -1.093000000    -2.947000000
O     0.645000000    -1.446000000     6.310000000
H     1.086000000    -2.261000000     6.069000000
H     0.558000000    -0.968000000     5.485000000
O    -4.687000000    -2.638000000    -1.378000000
H    -3.751000000    -2.605000000    -1.180000000
H    -5.114000000    -2.570000000    -0.524000000
O    -5.271000000    -0.930000000     3.425000000
H    -6.016000000    -1.524000000     3.339000000
H    -4.740000000    -1.098000000     2.646000000
O    -3.460000000     4.345000000    -5.420000000
H    -3.656000000     3.810000000    -4.651000000
H    -3.820000000     5.207000000    -5.211000000
O    -2.298000000     3.874000000     1.410000000
H    -2.180000000     3.691000000     2.342000000
H    -2.377000000     4.827000000     1.361000000
O     4.533000000     0.764000000    -0.218000000
H     4.258000000     1.499000000     0.330000000
H     4.596000000     0.025000000     0.386000000
O     0.477000000     0.388000000    -4.686000000
H     1.086000000     0.803000000    -4.075000000
H    -0.220000000     1.033000000    -4.805000000
O     5.692000000    -3.033000000     4.083000000
H     5.848000000    -2.948000000     3.143000000
H     4.789000000    -2.739000000     4.204000000
O    -2.121000000    -2.146000000    -0.616000000
H    -1.373000000    -2.490000000    -0.128000000
H    -1.731000000    -1.699000000    -1.367000000
O     0.516000000     4.077000000     3.452000000
H    -0.195000000     4.718000000     3.454000000
H     0.559000000     3.769000000     2.547000000
O    -0.157000000    -3.877000000    -5.186000000
H     0.061000000    -3.659000000    -4.280000000
H    -1.034000000    -4.257000000    -5.137000000
O     3.937000000     1.309000000    -4.453000000
H     4.163000000     1.970000000    -5.108000000
H     4.780000000     0.959000000    -4.165000000
O     3.593000000    -1.404000000     5.115000000
H     2.982000000    -1.154000000     4.422000000
H     3.250000000    -2.231000000     5.451000000
O     1.112000000    -4.244000000     3.190000000
H     1.066000000    -3.402000000     2.736000000
H     1.364000000    -4.019000000     4.085000000
O    -4.523000000     2.378000000     0.422000000
H    -4.384000000     2.383000000    -0.525000000
H    -3.877000000     2.997000000     0.762000000
O     3.822000000     2.303000000     2.000000000
H     3.474000000     1.805000000     2.740000000
H     3.666000000     3.218000000     2.233000000
O     2.573000000    -0.415000000    -6.950000000
H     2.039000000     0.166000000    -7.492000000
H     2.817000000     0.119000000    -6.195000000
O    -3.229000000     0.033000000    -5.908000000
H    -3.646000000     0.751000000    -5.433000000
H    -3.025000000    -0.615000000    -5.234000000
O    -1.804000000     3.129000000    -7.225000000
H    -2.338000000     2.360000000    -7.427000000
H    -2.327000000     3.625000000    -6.596000000
O     0.296000000     3.658000000    -1.893000000
H     1.196000000     3.345000000    -1.802000000
H     0.098000000     3.549000000    -2.823000000
O     4.455000000    -1.797000000     1.447000000
H     3.668000000    -1.689000000     1.981000000
H     4.322000000    -2.627000000     0.989000000
O    -0.806000000    -1.407000000     8.762000000
H    -0.348000000    -1.693000000     7.972000000
H    -1.587000000    -0.959000000     8.438000000
O     4.493000000    -4.108000000    -0.365000000
H     4.596000000    -5.060000000    -0.339000000
H     4.023000000    -3.940000000    -1.181000000
O     2.604000000    -6.748000000     2.758000000
H     2.207000000    -5.880000000     2.686000000
H     2.041000000    -7.219000000     3.373000000
O     2.716000000     2.109000000    -2.162000000
H     3.138000000     2.102000000    -3.021000000
H     3.212000000     1.472000000    -1.647000000
O    -0.546000000    -1.202000000    -7.055000000
H     0.226000000    -1.303000000    -6.498000000
H    -1.048000000    -0.499000000    -6.643000000
O     3.494000000    -2.738000000    -2.979000000
H     4.033000000    -1.979000000    -3.203000000
H     3.404000000    -3.220000000    -3.801000000
O     1.486000000    -5.555000000    -0.984000000
H     2.368000000    -5.609000000    -1.353000000
H     1.134000000    -6.440000000    -1.075000000
O    -1.043000000     1.776000000     7.915000000
H    -0.253000000     1.597000000     7.406000000
H    -1.706000000     1.196000000     7.540000000
O     5.719000000     0.018000000     6.038000000
H     5.246000000    -0.698000000     5.614000000
H     5.753000000     0.708000000     5.375000000
O    -4.092000000    -0.815000000     0.843000000
H    -3.458000000    -1.411000000     0.443000000
H    -3.621000000     0.014000000     0.927000000
O     6.195000000    -1.823000000    -0.959000000
H     5.792000000    -1.202000000    -1.566000000
H     5.607000000    -1.837000000    -0.205000000
O     0.372000000     1.896000000     5.463000000
H     0.286000000     1.179000000     4.834000000
H     0.612000000     2.654000000     4.930000000
O    -6.814000000     2.731000000     2.001000000
H    -5.971000000     2.614000000     1.563000000
H    -7.456000000     2.713000000     1.292000000
O    -3.031000000     4.474000000    -1.915000000
H    -3.353000000     4.639000000    -1.028000000
H    -2.321000000     3.843000000    -1.798000000
O    -0.306000000    -3.774000000     0.236000000
H    -0.975000000    -4.408000000    -0.021000000
H     0.511000000    -4.273000000     0.235000000
O    -3.994000000     0.963000000     5.074000000
H    -4.050000000     1.765000000     4.554000000
H    -4.356000000     0.283000000     4.506000000
O    -2.172000000    -1.992000000     4.654000000
H    -2.898000000    -1.403000000     4.860000000
H    -1.413000000    -1.414000000     4.567000000
O    -1.261000000    -5.491000000     3.527000000
H    -1.778000000    -5.034000000     2.863000000
H    -0.376000000    -5.144000000     3.422000000
O     0.515000000     3.387000000     0.817000000
H     0.171000000     3.630000000    -0.043000000
H     0.352000000     2.446000000     0.883000000
O    -5.035000000     1.803000000    -4.020000000
H    -5.334000000     0.897000000    -3.940000000
H    -5.599000000     2.295000000    -3.423000000
O     0.557000000    -3.330000000    -2.714000000
H     0.498000000    -3.979000000    -2.013000000
H     1.373000000    -2.861000000    -2.538000000
O     2.775000000    -4.142000000     5.574000000
H     3.067000000    -3.853000000     6.438000000
H     3.068000000    -5.051000000     5.513000000
O    -5.940000000     3.320000000    -2.063000000
H    -5.275000000     4.000000000    -2.168000000
H    -6.627000000     3.736000000    -1.541000000
O     1.814000000     1.063000000     7.586000000
H     1.778000000     1.507000000     6.738000000
H     1.535000000     0.167000000     7.399000000
O     0.014000000     3.229000000    -4.679000000
H     0.802000000     3.747000000    -4.839000000
H    -0.455000000     3.241000000    -5.513000000
O    -1.858000000    -4.181000000     6.478000000
H    -0.999000000    -4.174000000     6.900000000
H    -1.824000000    -3.459000000     5.851000000
