158
-3013.56866
C     1.290000000    -0.811000000     0.249000000
H     2.140000000    -1.488000000     0.239000000
C     0.890000000    -0.301000000    -1.028000000
H     1.388000000    -0.409000000    -1.988000000
C    -0.302000000     0.503000000    -1.081000000
H    -0.794000000     0.762000000    -2.066000000
C    -0.948000000     0.801000000     0.073000000
H    -1.842000000     1.404000000    -0.066000000
C    -0.457000000     0.295000000     1.261000000
H    -1.126000000     0.494000000     2.094000000
C     0.623000000    -0.566000000     1.416000000
C     0.890000000    -1.302000000     2.736000000
O     1.644000000    -2.245000000     2.701000000
O     0.291000000    -1.013000000     3.764000000
O     2.051000000    -1.774000000     5.547000000
H     1.821000000    -2.670000000     5.793000000
H     1.627000000    -1.642000000     4.699000000
O    -4.307000000    -2.751000000    -1.981000000
H    -4.317000000    -3.393000000    -1.270000000
H    -3.861000000    -3.198000000    -2.700000000
O    -1.049000000     5.793000000    -4.285000000
H    -0.826000000     5.784000000    -3.354000000
H    -0.568000000     6.541000000    -4.640000000
O    -3.553000000     4.896000000    -5.201000000
H    -4.174000000     4.548000000    -4.560000000
H    -2.855000000     5.283000000    -4.673000000
O    -3.201000000     3.355000000     1.231000000
H    -2.552000000     3.885000000     0.769000000
H    -4.025000000     3.827000000     1.111000000
O     6.703000000    -1.197000000     0.616000000
H     6.602000000    -0.569000000     1.331000000
H     6.579000000    -2.052000000     1.028000000
O    -1.780000000    -0.483000000    -4.167000000
H    -1.261000000    -1.268000000    -3.988000000
H    -1.239000000     0.030000000    -4.767000000
O    -2.132000000    -2.135000000     1.080000000
H    -1.298000000    -2.591000000     0.971000000
H    -2.322000000    -1.772000000     0.215000000
O    -1.783000000     2.716000000     5.158000000
H    -2.052000000     3.608000000     5.375000000
H    -1.036000000     2.828000000     4.570000000
O    -0.232000000    -3.106000000    -6.409000000
H    -0.932000000    -2.658000000    -6.884000000
H    -0.253000000    -2.721000000    -5.533000000
O     3.354000000     1.492000000    -4.228000000
H     3.695000000     1.847000000    -3.406000000
H     4.134000000     1.226000000    -4.715000000
O     4.430000000    -3.354000000     3.955000000
H     5.087000000    -3.061000000     3.323000000
H     3.698000000    -3.655000000     3.418000000
O    -0.008000000    -4.308000000     2.989000000
H     0.654000000    -3.641000000     2.805000000
H    -0.519000000    -3.945000000     3.712000000
O    -4.021000000     0.630000000     0.308000000
H    -3.611000000     0.307000000    -0.495000000
H    -3.674000000     1.515000000     0.414000000
O    -3.360000000    -3.094000000     3.392000000
H    -2.935000000    -2.632000000     2.670000000
H    -2.871000000    -2.824000000     4.170000000
O    -2.712000000    -1.031000000     7.787000000
H    -2.428000000    -0.502000000     7.043000000
H    -3.452000000    -1.538000000     7.452000000
O     4.141000000     1.229000000     2.567000000
H     3.751000000     2.091000000     2.424000000
H     3.440000000     0.712000000     2.966000000
O    -4.412000000     1.989000000     3.951000000
H    -3.882000000     2.503000000     3.341000000
H    -4.858000000     1.347000000     3.398000000
O     2.138000000    -0.393000000    -5.768000000
H     2.598000000    -0.509000000    -6.600000000
H     2.416000000     0.470000000    -5.460000000
O    -6.527000000    -0.305000000    -3.623000000
H    -6.811000000     0.230000000    -4.364000000
H    -5.600000000    -0.094000000    -3.516000000
O    -2.908000000    -1.906000000    -6.330000000
H    -3.160000000    -2.758000000    -6.686000000
H    -2.753000000    -2.071000000    -5.400000000
O     0.376000000     3.396000000    -2.237000000
H     0.283000000     2.466000000    -2.028000000
H     0.807000000     3.407000000    -3.092000000
O     3.395000000    -3.468000000     1.336000000
H     2.812000000    -3.014000000     1.945000000
H     2.868000000    -3.587000000     0.545000000
O     0.699000000    -0.605000000     7.726000000
H     0.997000000    -1.108000000     6.968000000
H    -0.078000000    -0.140000000     7.414000000
O     1.518000000    -5.050000000    -0.795000000
H     1.790000000    -5.903000000    -0.456000000
H     2.099000000    -4.892000000    -1.539000000
O     4.529000000    -5.950000000     1.652000000
H     4.115000000    -5.087000000     1.675000000
H     4.094000000    -6.443000000     2.347000000
O     5.929000000    -2.587000000    -1.771000000
H     5.860000000    -2.079000000    -0.963000000
H     5.513000000    -2.037000000    -2.435000000
O     5.092000000     2.855000000    -0.148000000
H     4.968000000     1.961000000     0.170000000
H     5.708000000     3.246000000     0.472000000
O     2.491000000    -4.465000000    -3.404000000
H     1.938000000    -4.899000000    -4.054000000
H     3.359000000    -4.442000000    -3.806000000
O     2.417000000     1.594000000     7.516000000
H     2.345000000     1.489000000     6.567000000
H     1.710000000     1.055000000     7.871000000
O    -5.129000000    -0.811000000     2.370000000
H    -4.521000000    -0.931000000     3.100000000
H    -4.605000000    -0.391000000     1.688000000
O     4.302000000    -1.611000000    -3.779000000
H     4.446000000    -2.331000000    -4.394000000
H     3.521000000    -1.167000000    -4.109000000
O     1.723000000     1.088000000     4.539000000
H     1.185000000     0.376000000     4.192000000
H     1.333000000     1.882000000     4.174000000
O    -1.952000000     4.197000000    -1.108000000
H    -1.020000000     4.057000000    -1.273000000
H    -2.034000000     5.142000000    -0.982000000
O    -0.961000000    -4.032000000    -1.001000000
H    -0.093000000    -4.371000000    -0.783000000
H    -1.294000000    -4.635000000    -1.666000000
O     3.913000000     3.848000000    -2.463000000
H     3.120000000     4.378000000    -2.374000000
H     4.226000000     3.733000000    -1.566000000
O    -0.891000000     2.934000000    -5.820000000
H    -1.670000000     3.280000000    -5.386000000
H    -0.169000000     3.457000000    -5.471000000
O    -1.939000000     0.003000000     5.045000000
H    -1.986000000     0.938000000     4.843000000
H    -1.154000000    -0.301000000     4.590000000
O    -0.997000000    -2.939000000     5.120000000
H    -0.699000000    -3.087000000     6.017000000
H    -0.462000000    -2.209000000     4.808000000
O    -0.096000000    -6.870000000     2.366000000
H    -0.816000000    -6.969000000     2.990000000
H     0.177000000    -5.958000000     2.458000000
O     0.339000000     2.932000000     3.010000000
H     0.444000000     3.879000000     2.914000000
H     0.424000000     2.590000000     2.120000000
O    -3.693000000    -0.162000000    -2.447000000
H    -3.058000000    -0.183000000    -3.163000000
H    -3.890000000    -1.082000000    -2.274000000
O    -0.354000000    -2.760000000    -3.567000000
H    -0.606000000    -2.778000000    -2.643000000
H     0.517000000    -3.156000000    -3.585000000
O     2.143000000    -4.488000000     6.541000000
H     2.716000000    -4.701000000     7.277000000
H     2.712000000    -4.532000000     5.773000000
O    -3.936000000     3.063000000    -2.537000000
H    -4.158000000     2.199000000    -2.190000000
H    -3.174000000     3.337000000    -2.027000000
O     4.559000000    -0.920000000     5.326000000
H     3.764000000    -0.461000000     5.595000000
H     4.252000000    -1.776000000     5.027000000
O    -0.330000000     0.336000000    -6.756000000
H    -0.447000000     1.274000000    -6.902000000
H     0.503000000     0.268000000    -6.289000000
O     1.601000000     3.875000000    -5.143000000
H     2.231000000     3.171000000    -4.989000000
H     2.141000000     4.638000000    -5.349000000
