158
-3044.78182
C    -0.027000000    -1.470000000     0.358000000
H     0.104000000    -2.527000000     0.575000000
C     0.442000000    -0.936000000    -0.835000000
H     0.893000000    -1.580000000    -1.585000000
C     0.262000000     0.432000000    -1.107000000
H     0.587000000     0.880000000    -2.042000000
C    -0.335000000     1.293000000    -0.187000000
H    -0.293000000     2.367000000    -0.353000000
C    -0.658000000     0.767000000     1.126000000
H    -0.945000000     1.405000000     1.958000000
C    -0.515000000    -0.602000000     1.390000000
C    -0.846000000    -1.050000000     2.755000000
O    -1.052000000    -2.220000000     2.968000000
O    -1.163000000    -0.234000000     3.576000000
O    -3.269000000    -3.535000000    -2.325000000
H    -3.172000000    -2.904000000    -1.612000000
H    -4.192000000    -3.788000000    -2.296000000
O    -3.039000000    -1.680000000     5.077000000
H    -2.532000000    -2.410000000     5.432000000
H    -2.410000000    -1.185000000     4.552000000
O    -3.958000000    -0.687000000     2.212000000
H    -4.363000000    -1.551000000     2.132000000
H    -3.065000000    -0.867000000     2.503000000
O    -4.245000000     1.619000000     4.019000000
H    -5.070000000     1.268000000     4.354000000
H    -3.846000000     0.886000000     3.549000000
O    -3.268000000     3.259000000    -3.021000000
H    -3.852000000     3.384000000    -2.273000000
H    -3.710000000     2.605000000    -3.562000000
O     2.669000000     1.013000000    -7.123000000
H     3.282000000     0.381000000    -6.747000000
H     1.837000000     0.542000000    -7.166000000
O     5.073000000    -1.987000000    -1.167000000
H     5.618000000    -1.426000000    -1.719000000
H     5.649000000    -2.708000000    -0.916000000
O    -0.827000000     2.233000000    -4.191000000
H    -1.640000000     2.386000000    -3.710000000
H    -0.935000000     2.723000000    -5.005000000
O     3.843000000    -2.451000000    -4.719000000
H     4.781000000    -2.257000000    -4.704000000
H     3.736000000    -3.165000000    -4.091000000
O    -3.703000000    -0.918000000    -1.331000000
H    -3.728000000    -1.483000000    -0.559000000
H    -2.949000000    -0.347000000    -1.187000000
O    -0.531000000    -6.358000000     4.985000000
H     0.015000000    -5.638000000     4.669000000
H    -0.919000000    -6.730000000     4.193000000
O     0.550000000    -0.291000000    -7.614000000
H    -0.248000000     0.125000000    -7.287000000
H     0.400000000    -1.228000000    -7.487000000
O     0.450000000     3.825000000     5.029000000
H     0.325000000     3.865000000     4.081000000
H     0.038000000     3.002000000     5.290000000
O     0.384000000    -4.699000000    -3.053000000
H     1.122000000    -4.225000000    -2.668000000
H     0.048000000    -5.239000000    -2.338000000
O     2.785000000    -0.458000000    -3.360000000
H     3.259000000    -1.110000000    -3.877000000
H     1.956000000    -0.341000000    -3.824000000
O    -2.912000000     3.467000000     1.877000000
H    -3.408000000     2.659000000     1.749000000
H    -3.529000000     4.063000000     2.302000000
O     0.439000000    -0.150000000    -4.506000000
H     0.237000000     0.779000000    -4.620000000
H    -0.341000000    -0.515000000    -4.088000000
O     3.287000000     2.468000000    -4.484000000
H     3.411000000     1.850000000    -3.763000000
H     3.985000000     2.257000000    -5.103000000
O     2.049000000     0.705000000     3.665000000
H     1.257000000     0.337000000     4.056000000
H     2.462000000     1.195000000     4.375000000
O     1.135000000    -2.419000000    -5.682000000
H     0.912000000    -1.542000000    -5.369000000
H     2.043000000    -2.548000000    -5.405000000
O    -0.604000000    -2.947000000     6.444000000
H    -0.170000000    -2.277000000     5.915000000
H     0.013000000    -3.131000000     7.151000000
O     6.695000000     0.292000000    -1.743000000
H     5.780000000     0.552000000    -1.635000000
H     6.985000000     0.065000000    -0.859000000
O    -5.459000000     1.024000000     0.896000000
H    -4.916000000     0.397000000     1.374000000
H    -6.116000000     1.306000000     1.532000000
O    -4.844000000    -3.876000000     3.912000000
H    -4.790000000    -2.979000000     4.242000000
H    -4.312000000    -3.871000000     3.116000000
O     2.728000000     0.106000000     1.171000000
H     1.844000000     0.121000000     0.805000000
H     2.615000000     0.379000000     2.082000000
O     1.530000000     4.812000000    -4.656000000
H     1.638000000     3.888000000    -4.430000000
H     2.392000000     5.085000000    -4.968000000
O     2.991000000    -2.065000000     3.894000000
H     3.591000000    -2.205000000     4.627000000
H     2.438000000    -1.335000000     4.172000000
O    -2.678000000    -4.755000000     6.012000000
H    -2.568000000    -4.973000000     5.086000000
H    -1.878000000    -4.281000000     6.243000000
O     0.760000000    -3.802000000     3.835000000
H     0.110000000    -3.177000000     3.514000000
H     1.581000000    -3.310000000     3.843000000
O    -0.686000000     4.234000000    -6.121000000
H    -0.737000000     5.124000000    -6.469000000
H     0.129000000     4.218000000    -5.620000000
O    -1.298000000    -6.246000000     0.084000000
H    -0.582000000    -6.246000000     0.720000000
H    -1.973000000    -5.698000000     0.484000000
O    -5.626000000    -0.636000000     5.616000000
H    -5.979000000    -1.393000000     6.083000000
H    -4.712000000    -0.863000000     5.446000000
O     4.506000000    -2.365000000     1.572000000
H     3.834000000    -2.305000000     2.251000000
H     4.144000000    -1.876000000     0.833000000
O    -2.285000000    -4.522000000     2.085000000
H    -2.090000000    -5.412000000     2.378000000
H    -1.839000000    -3.959000000     2.718000000
O    -0.316000000     4.345000000     2.350000000
H    -0.067000000     4.868000000     1.588000000
H    -1.162000000     3.965000000     2.114000000
O     3.534000000     1.292000000    -1.210000000
H     3.130000000     0.780000000    -1.911000000
H     3.404000000     0.764000000    -0.422000000
O    -1.951000000     0.423000000    -7.133000000
H    -2.143000000    -0.507000000    -7.016000000
H    -2.461000000     0.860000000    -6.450000000
O    -1.299000000    -2.424000000    -3.651000000
H    -2.040000000    -2.843000000    -3.214000000
H    -0.595000000    -3.071000000    -3.602000000
O     3.191000000    -4.312000000    -2.349000000
H     3.745000000    -3.663000000    -1.915000000
H     3.249000000    -5.088000000    -1.792000000
O    -1.673000000     1.801000000     5.076000000
H    -1.529000000     0.962000000     4.637000000
H    -2.354000000     2.229000000     4.557000000
O    -3.829000000    -2.906000000     0.334000000
H    -4.683000000    -3.326000000     0.436000000
H    -3.289000000    -3.290000000     1.024000000
O     0.924000000    -6.337000000     1.624000000
H     0.582000000    -7.075000000     2.127000000
H     1.132000000    -5.674000000     2.282000000
O    -3.140000000     2.036000000     7.258000000
H    -2.593000000     1.928000000     6.481000000
H    -3.109000000     2.975000000     7.445000000
O     2.397000000     3.226000000     1.508000000
H     2.066000000     2.354000000     1.292000000
H     1.728000000     3.600000000     2.081000000
O     2.587000000     3.963000000    -1.315000000
H     3.101000000     3.174000000    -1.486000000
H     2.604000000     4.059000000    -0.363000000
O     1.092000000    -0.972000000     5.790000000
H     1.627000000    -1.442000000     6.430000000
H     0.549000000    -0.385000000     6.316000000
O     0.011000000     4.465000000    -1.914000000
H     0.915000000     4.424000000    -1.601000000
H    -0.072000000     3.717000000    -2.505000000
O    -0.975000000     5.963000000     0.219000000
H    -0.938000000     5.576000000    -0.656000000
H    -1.908000000     5.982000000     0.433000000
