158
-3019.74180
C     0.735000000    -0.979000000    -0.828000000
H     1.165000000    -1.693000000    -1.526000000
C     0.081000000     0.117000000    -1.335000000
H     0.094000000     0.308000000    -2.405000000
C    -0.596000000     0.940000000    -0.462000000
H    -1.144000000     1.764000000    -0.860000000
C    -0.502000000     0.797000000     0.891000000
H    -1.037000000     1.473000000     1.552000000
C     0.247000000    -0.263000000     1.434000000
H     0.212000000    -0.424000000     2.509000000
C     0.888000000    -1.176000000     0.613000000
C     1.526000000    -2.471000000     1.108000000
O     1.883000000    -3.277000000     0.310000000
O     1.542000000    -2.712000000     2.322000000
O    -2.389000000    -0.291000000    -4.067000000
H    -2.698000000    -0.162000000    -3.170000000
H    -3.111000000    -0.740000000    -4.507000000
O    -0.708000000    -2.675000000     4.212000000
H    -0.038000000    -2.770000000     3.536000000
H    -1.526000000    -2.574000000     3.725000000
O    -1.222000000     2.003000000    -4.868000000
H    -1.614000000     1.296000000    -4.356000000
H    -0.387000000     1.645000000    -5.170000000
O     1.125000000     0.609000000    -5.529000000
H     1.518000000     0.092000000    -4.826000000
H     1.837000000     1.168000000    -5.842000000
O     4.809000000     2.193000000     1.973000000
H     3.877000000     2.003000000     1.872000000
H     4.950000000     2.983000000     1.451000000
O     3.891000000    -3.324000000    -5.590000000
H     3.183000000    -3.036000000    -5.014000000
H     3.908000000    -2.675000000    -6.293000000
O    -2.222000000    -1.885000000    -0.014000000
H    -1.975000000    -2.628000000    -0.565000000
H    -1.446000000    -1.324000000    -0.008000000
O    -0.050000000    -0.126000000     5.625000000
H    -0.812000000     0.023000000     5.066000000
H     0.407000000    -0.861000000     5.216000000
O     1.883000000    -2.688000000     7.010000000
H     1.807000000    -2.698000000     6.055000000
H     1.261000000    -3.351000000     7.307000000
O     1.977000000    -2.012000000    -3.998000000
H     2.228000000    -2.038000000    -3.074000000
H     1.100000000    -2.393000000    -4.019000000
O     2.995000000    -4.213000000     4.084000000
H     2.509000000    -3.608000000     3.523000000
H     2.392000000    -4.941000000     4.230000000
O     1.226000000    -5.844000000     2.028000000
H     2.062000000    -6.070000000     1.620000000
H     1.183000000    -4.890000000     1.973000000
O    -4.209000000     2.376000000     3.775000000
H    -4.290000000     2.744000000     4.654000000
H    -4.174000000     3.139000000     3.198000000
O    -1.296000000    -6.424000000     1.169000000
H    -1.684000000    -6.680000000     2.006000000
H    -0.353000000    -6.530000000     1.301000000
O     2.627000000    -1.408000000     4.238000000
H     3.572000000    -1.496000000     4.116000000
H     2.246000000    -1.800000000     3.452000000
O     3.635000000     2.603000000    -2.729000000
H     3.686000000     2.386000000    -3.660000000
H     4.051000000     1.863000000    -2.287000000
O     1.552000000    -6.769000000     4.708000000
H     1.194000000    -7.649000000     4.825000000
H     1.428000000    -6.582000000     3.778000000
O    -2.039000000     3.587000000    -2.652000000
H    -1.453000000     3.876000000    -1.953000000
H    -1.458000000     3.196000000    -3.305000000
O    -2.957000000     6.668000000     0.442000000
H    -2.056000000     6.713000000     0.120000000
H    -3.468000000     6.380000000    -0.314000000
O    -1.668000000    -4.656000000     5.891000000
H    -2.539000000    -4.322000000     6.103000000
H    -1.354000000    -4.081000000     5.193000000
O     4.369000000    -2.872000000    -2.077000000
H     4.822000000    -3.446000000    -1.459000000
H     4.212000000    -2.067000000    -1.584000000
O    -0.791000000    -7.113000000    -1.607000000
H     0.002000000    -6.591000000    -1.734000000
H    -1.156000000    -6.796000000    -0.780000000
O     3.793000000    -6.091000000     1.514000000
H     4.070000000    -6.303000000     2.406000000
H     4.558000000    -6.287000000     0.973000000
O    -6.645000000     4.156000000     0.364000000
H    -7.418000000     3.653000000     0.618000000
H    -6.034000000     3.501000000     0.024000000
O     5.425000000    -3.638000000     0.589000000
H     5.885000000    -4.110000000     1.283000000
H     4.503000000    -3.676000000     0.844000000
O     1.631000000    -5.866000000    -1.342000000
H     1.664000000    -5.565000000    -2.250000000
H     2.071000000    -5.176000000    -0.845000000
O    -1.376000000     2.937000000     4.940000000
H    -1.335000000     3.492000000     4.161000000
H    -1.607000000     2.070000000     4.605000000
O    -5.914000000    -1.010000000    -2.099000000
H    -5.726000000    -0.456000000    -2.857000000
H    -6.741000000    -1.440000000    -2.316000000
O     2.249000000     1.600000000     0.369000000
H     1.971000000     2.476000000     0.637000000
H     1.449000000     1.076000000     0.393000000
O    -4.875000000     5.141000000     2.258000000
H    -4.242000000     5.644000000     1.745000000
H    -5.411000000     4.694000000     1.603000000
O    -4.136000000     6.274000000    -1.979000000
H    -4.987000000     6.623000000    -2.245000000
H    -4.196000000     5.335000000    -2.157000000
O    -3.326000000     0.238000000    -1.284000000
H    -2.618000000    -0.379000000    -1.099000000
H    -4.127000000    -0.272000000    -1.161000000
O    -6.394000000     1.043000000    -4.044000000
H    -5.797000000     1.771000000    -3.871000000
H    -7.235000000     1.334000000    -3.691000000
O     3.663000000    -0.346000000    -0.888000000
H     4.371000000     0.248000000    -1.136000000
H     3.099000000     0.177000000    -0.319000000
O    -2.179000000     0.283000000     4.143000000
H    -2.389000000    -0.528000000     3.681000000
H    -2.946000000     0.841000000     4.008000000
O    -4.815000000     2.253000000    -0.668000000
H    -4.130000000     1.596000000    -0.794000000
H    -5.019000000     2.560000000    -1.551000000
O    -1.067000000    -4.133000000    -1.403000000
H    -1.701000000    -4.691000000    -0.954000000
H    -0.219000000    -4.401000000    -1.050000000
O    -4.439000000     3.014000000    -3.560000000
H    -3.547000000     3.114000000    -3.227000000
H    -4.400000000     3.354000000    -4.454000000
O     2.521000000    -8.236000000    -0.204000000
H     3.426000000    -8.124000000    -0.493000000
H     2.054000000    -7.491000000    -0.583000000
O     0.174000000     6.012000000    -0.274000000
H     0.944000000     5.495000000    -0.511000000
H     0.001000000     6.551000000    -1.046000000
O    -1.043000000    -3.062000000    -3.847000000
H    -1.209000000    -3.324000000    -2.941000000
H    -1.573000000    -2.274000000    -3.968000000
O     2.934000000     4.449000000    -0.446000000
H     3.775000000     4.886000000    -0.312000000
H     3.109000000     3.794000000    -1.121000000
O     2.521000000     1.101000000     5.822000000
H     1.909000000     0.670000000     6.418000000
H     2.366000000     0.681000000     4.975000000
O     1.650000000     4.160000000     1.909000000
H     2.044000000     4.315000000     1.050000000
H     2.317000000     4.447000000     2.533000000
O    -2.753000000    -2.326000000     2.665000000
H    -2.832000000    -2.206000000     1.718000000
H    -3.496000000    -2.882000000     2.899000000
O     2.500000000     4.939000000    -3.705000000
H     2.770000000     4.040000000    -3.515000000
H     1.797000000     4.847000000    -4.347000000
O    -0.804000000     4.308000000     2.723000000
H     0.075000000     3.992000000     2.517000000
H    -0.955000000     5.021000000     2.102000000
O    -5.122000000    -0.651000000     1.930000000
H    -5.438000000    -0.745000000     2.829000000
H    -4.437000000     0.016000000     1.986000000
