158
-3041.25998
C     0.762000000    -0.675000000    -1.095000000
H     1.286000000    -1.017000000    -1.984000000
C     0.153000000     0.589000000    -1.106000000
H     0.237000000     1.156000000    -2.030000000
C    -0.468000000     1.124000000    -0.025000000
H    -0.994000000     2.056000000    -0.044000000
C    -0.574000000     0.337000000     1.131000000
H    -1.142000000     0.677000000     1.993000000
C    -0.042000000    -0.934000000     1.159000000
H    -0.133000000    -1.439000000     2.118000000
C     0.640000000    -1.458000000     0.068000000
C     1.263000000    -2.820000000     0.136000000
O     1.910000000    -3.077000000    -0.798000000
O     1.048000000    -3.571000000     1.118000000
O    -1.714000000     3.612000000    -2.188000000
H    -1.721000000     3.565000000    -3.144000000
H    -0.797000000     3.769000000    -1.963000000
O    -4.200000000     0.320000000    -2.402000000
H    -4.035000000     1.114000000    -1.894000000
H    -3.681000000    -0.356000000    -1.966000000
O    -2.822000000     0.603000000     5.545000000
H    -2.019000000     0.643000000     5.025000000
H    -2.710000000     1.281000000     6.211000000
O    -0.994000000     0.297000000    -4.151000000
H    -0.356000000     0.433000000    -3.451000000
H    -1.284000000     1.178000000    -4.387000000
O     2.710000000     3.933000000     0.389000000
H     3.075000000     4.690000000    -0.068000000
H     3.222000000     3.871000000     1.196000000
O    -4.535000000     6.747000000     0.747000000
H    -3.846000000     6.159000000     0.435000000
H    -4.255000000     6.997000000     1.628000000
O     3.030000000    -6.807000000     3.289000000
H     2.533000000    -7.556000000     3.617000000
H     2.448000000    -6.396000000     2.650000000
O    -2.160000000    -3.299000000    -2.105000000
H    -2.484000000    -4.046000000    -1.602000000
H    -2.354000000    -2.538000000    -1.557000000
O    -2.756000000     4.696000000     0.304000000
H    -1.986000000     4.858000000     0.849000000
H    -2.407000000     4.609000000    -0.583000000
O    -4.529000000    -0.251000000     1.208000000
H    -4.346000000     0.522000000     0.675000000
H    -4.256000000    -0.003000000     2.092000000
O     2.259000000     3.070000000    -3.225000000
H     3.152000000     3.357000000    -3.418000000
H     1.972000000     2.628000000    -4.024000000
O     2.033000000    -3.640000000    -5.120000000
H     1.618000000    -4.420000000    -5.488000000
H     1.444000000    -3.363000000    -4.418000000
O     4.498000000    -5.575000000    -3.701000000
H     5.367000000    -5.769000000    -3.348000000
H     3.938000000    -5.495000000    -2.929000000
O    -3.092000000    -2.105000000     4.649000000
H    -2.969000000    -1.211000000     4.968000000
H    -4.042000000    -2.221000000     4.622000000
O    -1.035000000     2.329000000     4.479000000
H    -0.912000000     2.745000000     5.332000000
H    -0.245000000     2.556000000     3.987000000
O     5.185000000    -3.496000000     2.683000000
H     5.481000000    -3.735000000     3.562000000
H     5.378000000    -2.561000000     2.612000000
O    -2.423000000    -5.443000000    -0.422000000
H    -1.784000000    -6.051000000    -0.797000000
H    -2.065000000    -5.219000000     0.437000000
O     1.761000000    -6.181000000     0.886000000
H     1.535000000    -5.254000000     0.961000000
H     0.922000000    -6.622000000     0.750000000
O    -0.815000000    -7.329000000     3.487000000
H    -1.450000000    -7.903000000     3.059000000
H    -0.771000000    -6.557000000     2.922000000
O    -3.137000000     3.204000000     2.590000000
H    -2.762000000     3.755000000     1.903000000
H    -2.470000000     3.190000000     3.277000000
O     2.634000000    -3.689000000     3.415000000
H     2.052000000    -3.615000000     2.658000000
H     3.434000000    -4.080000000     3.065000000
O    -5.346000000     3.674000000     0.949000000
H    -4.511000000     3.713000000     1.415000000
H    -5.531000000     4.582000000     0.711000000
O     0.464000000    -3.416000000    -3.057000000
H     1.129000000    -3.384000000    -2.369000000
H    -0.368000000    -3.355000000    -2.588000000
O     6.709000000    -4.313000000    -0.366000000
H     6.666000000    -3.423000000    -0.716000000
H     5.851000000    -4.689000000    -0.561000000
O    -2.733000000    -2.495000000    -4.702000000
H    -2.221000000    -1.688000000    -4.659000000
H    -2.586000000    -2.917000000    -3.855000000
O    -3.677000000     2.195000000    -0.492000000
H    -2.945000000     2.592000000    -0.963000000
H    -4.206000000     2.937000000    -0.201000000
O    -0.173000000    -1.253000000    -6.248000000
H     0.603000000    -1.801000000    -6.131000000
H    -0.365000000    -0.919000000    -5.372000000
O     3.263000000    -5.578000000    -1.321000000
H     2.810000000    -5.748000000    -0.495000000
H     2.785000000    -4.844000000    -1.708000000
O    -4.741000000     1.374000000     3.623000000
H    -4.049000000     1.084000000     4.217000000
H    -4.357000000     2.110000000     3.148000000
O     3.974000000     1.323000000    -1.102000000
H     3.358000000     1.761000000    -1.690000000
H     4.126000000     0.469000000    -1.507000000
O     3.273000000    -0.969000000    -4.577000000
H     2.791000000    -1.795000000    -4.541000000
H     3.544000000    -0.889000000    -5.492000000
O    -4.351000000     2.449000000    -5.327000000
H    -4.382000000     2.113000000    -4.432000000
H    -5.185000000     2.182000000    -5.713000000
O    -4.106000000    -3.505000000     1.377000000
H    -3.574000000    -3.249000000     2.130000000
H    -4.180000000    -4.457000000     1.448000000
O     1.011000000     0.647000000     6.809000000
H     0.480000000     0.658000000     7.605000000
H     0.483000000     0.163000000     6.175000000
O    -0.907000000     3.635000000    -4.733000000
H    -0.702000000     3.328000000    -5.616000000
H    -0.276000000     4.336000000    -4.571000000
O    -2.447000000    -1.194000000    -0.687000000
H    -1.700000000    -0.602000000    -0.598000000
H    -3.017000000    -0.973000000     0.049000000
O     4.154000000    -1.188000000    -2.055000000
H     3.675000000    -1.888000000    -1.610000000
H     3.779000000    -1.164000000    -2.935000000
O     2.740000000    -0.648000000     4.272000000
H     2.347000000    -1.495000000     4.064000000
H     2.657000000    -0.141000000     3.464000000
O     0.510000000     4.193000000    -1.372000000
H     1.241000000     3.716000000    -1.766000000
H     0.674000000     4.148000000    -0.430000000
O    -2.015000000    -4.457000000     4.842000000
H    -2.455000000    -5.069000000     5.433000000
H    -2.519000000    -3.647000000     4.918000000
O     0.405000000     7.171000000     0.881000000
H    -0.002000000     7.880000000     1.379000000
H     0.177000000     7.356000000    -0.030000000
O     1.136000000    -3.822000000     5.646000000
H     1.537000000    -3.966000000     4.789000000
H     1.856000000    -3.929000000     6.268000000
O     2.486000000     0.776000000     1.953000000
H     1.571000000     0.836000000     1.680000000
H     2.984000000     0.818000000     1.137000000
O     1.213000000     2.935000000     3.345000000
H     1.740000000     3.733000000     3.330000000
H     1.729000000     2.298000000     2.850000000
O    -1.134000000    -4.835000000     2.022000000
H    -1.309000000    -4.521000000     2.910000000
H    -0.457000000    -4.247000000     1.689000000
O    -0.340000000     6.719000000    -1.758000000
H    -0.160000000     5.782000000    -1.676000000
H     0.054000000     6.966000000    -2.595000000
O    -0.429000000     4.838000000     1.794000000
H     0.083000000     5.608000000     1.546000000
H     0.181000000     4.297000000     2.296000000
O    -0.365000000    -1.472000000     5.154000000
H     0.105000000    -2.259000000     5.430000000
H    -1.198000000    -1.797000000     4.811000000
