158
-3018.44109
C     0.796000000    -0.836000000    -1.031000000
H     1.358000000    -1.503000000    -1.681000000
C    -0.036000000     0.207000000    -1.338000000
H    -0.147000000     0.444000000    -2.393000000
C    -0.681000000     0.922000000    -0.319000000
H    -1.397000000     1.810000000    -0.574000000
C    -0.565000000     0.556000000     0.984000000
H    -1.185000000     1.008000000     1.754000000
C     0.169000000    -0.502000000     1.365000000
H     0.162000000    -0.842000000     2.397000000
C     0.899000000    -1.160000000     0.353000000
C     1.738000000    -2.325000000     0.772000000
O     2.639000000    -2.627000000     0.051000000
O     1.470000000    -2.946000000     1.772000000
O     0.469000000     3.947000000    -0.281000000
H    -0.336000000     3.666000000    -0.717000000
H     1.170000000     3.524000000    -0.777000000
O    -1.614000000    -0.294000000    -4.243000000
H    -1.447000000    -0.473000000    -5.168000000
H    -1.604000000    -1.156000000    -3.827000000
O    -4.697000000     5.935000000     2.117000000
H    -5.406000000     5.997000000     1.477000000
H    -3.952000000     6.358000000     1.691000000
O     0.262000000     1.523000000    -5.775000000
H    -0.281000000     2.231000000    -5.428000000
H    -0.366000000     0.890000000    -6.123000000
O     1.284000000    -5.872000000     4.328000000
H     0.356000000    -5.900000000     4.093000000
H     1.742000000    -6.128000000     3.528000000
O     0.094000000    -2.793000000    -4.633000000
H    -0.827000000    -3.031000000    -4.746000000
H     0.565000000    -3.364000000    -5.239000000
O    -4.177000000    -3.368000000    -0.068000000
H    -4.022000000    -3.273000000     0.872000000
H    -3.949000000    -2.514000000    -0.436000000
O    -2.964000000     6.448000000    -0.017000000
H    -3.008000000     5.494000000     0.056000000
H    -2.150000000     6.684000000     0.428000000
O    -5.151000000     1.538000000     0.764000000
H    -5.456000000     0.862000000     1.369000000
H    -5.934000000     2.049000000     0.560000000
O     4.980000000    -5.050000000     3.517000000
H     4.972000000    -4.240000000     4.026000000
H     4.223000000    -4.974000000     2.935000000
O     7.335000000    -0.993000000    -0.407000000
H     6.691000000    -1.520000000     0.065000000
H     6.968000000    -0.895000000    -1.286000000
O     4.302000000    -2.651000000     4.660000000
H     4.444000000    -2.789000000     5.596000000
H     4.854000000    -1.901000000     4.441000000
O     1.756000000    -4.029000000    -2.524000000
H     2.005000000    -3.750000000    -1.643000000
H     1.275000000    -3.284000000    -2.884000000
O     1.895000000    -5.728000000     1.614000000
H     1.915000000    -4.772000000     1.658000000
H     1.107000000    -5.928000000     1.109000000
O    -2.835000000     3.720000000     5.365000000
H    -2.597000000     4.582000000     5.023000000
H    -2.201000000     3.555000000     6.062000000
O     1.772000000    -2.242000000     4.408000000
H     1.566000000    -2.242000000     3.473000000
H     2.711000000    -2.424000000     4.447000000
O     2.070000000     1.076000000     7.093000000
H     1.973000000     0.824000000     6.175000000
H     1.475000000     0.494000000     7.565000000
O    -5.052000000     3.377000000     3.833000000
H    -4.193000000     3.390000000     4.257000000
H    -5.012000000     4.087000000     3.192000000
O     2.073000000     3.236000000     4.984000000
H     2.117000000     2.971000000     4.066000000
H     2.430000000     2.490000000     5.466000000
O     2.028000000    -0.101000000    -4.183000000
H     2.080000000    -1.011000000    -4.475000000
H     1.192000000     0.213000000    -4.527000000
O    -3.195000000     3.898000000    -0.368000000
H    -3.057000000     3.232000000    -1.041000000
H    -3.833000000     3.507000000     0.229000000
O     2.835000000    -5.192000000     6.642000000
H     3.752000000    -4.925000000     6.572000000
H     2.558000000    -5.338000000     5.738000000
O     4.285000000    -6.413000000    -0.005000000
H     4.852000000    -6.734000000     0.696000000
H     3.445000000    -6.247000000     0.424000000
O     5.120000000    -3.854000000    -1.305000000
H     5.019000000    -4.746000000    -0.971000000
H     4.285000000    -3.429000000    -1.110000000
O    -2.793000000     1.055000000     5.719000000
H    -2.970000000     1.962000000     5.468000000
H    -3.004000000     0.545000000     4.937000000
O     4.808000000     1.963000000     0.599000000
H     5.245000000     1.145000000     0.361000000
H     5.492000000     2.486000000     1.018000000
O     2.597000000     2.806000000    -4.538000000
H     1.993000000     2.075000000    -4.406000000
H     3.346000000     2.419000000    -4.991000000
O     3.930000000     0.056000000    -2.134000000
H     3.535000000    -0.494000000    -1.458000000
H     3.247000000     0.146000000    -2.799000000
O    -6.482000000    -0.150000000    -2.163000000
H    -6.369000000    -0.292000000    -3.103000000
H    -5.713000000    -0.558000000    -1.765000000
O    -3.459000000    -0.440000000     3.728000000
H    -3.050000000    -1.288000000     3.557000000
H    -4.307000000    -0.489000000     3.286000000
O    -5.431000000     4.175000000    -5.079000000
H    -6.298000000     3.872000000    -4.812000000
H    -5.043000000     4.527000000    -4.278000000
O    -3.197000000    -3.268000000     2.829000000
H    -2.305000000    -3.600000000     2.728000000
H    -3.694000000    -4.015000000     3.164000000
O     0.405000000    -6.299000000    -1.963000000
H    -0.439000000    -5.936000000    -2.231000000
H     1.040000000    -5.620000000    -2.191000000
O     3.769000000    -6.254000000    -3.773000000
H     3.937000000    -6.910000000    -3.096000000
H     3.372000000    -5.521000000    -3.302000000
O    -3.155000000     1.858000000    -2.402000000
H    -2.639000000     1.352000000    -3.030000000
H    -3.957000000     2.081000000    -2.876000000
O    -3.725000000    -0.481000000    -0.714000000
H    -2.900000000     0.000000000    -0.784000000
H    -4.259000000     0.046000000    -0.120000000
O    -1.092000000     7.626000000     1.796000000
H    -0.539000000     7.363000000     1.061000000
H    -0.816000000     8.521000000     1.995000000
O     5.241000000    -1.881000000     1.124000000
H     4.466000000    -2.356000000     0.822000000
H     4.937000000    -1.387000000     1.886000000
O     2.144000000     0.340000000     4.612000000
H     1.908000000    -0.587000000     4.644000000
H     1.873000000     0.626000000     3.739000000
O     3.178000000     3.292000000    -1.731000000
H     3.108000000     3.278000000    -2.686000000
H     3.631000000     2.478000000    -1.512000000
O    -0.467000000    -3.581000000     5.948000000
H     0.156000000    -3.154000000     5.360000000
H     0.038000000    -3.765000000     6.740000000
O     2.115000000    -2.286000000     7.481000000
H     2.226000000    -1.835000000     6.644000000
H     2.992000000    -2.597000000     7.704000000
O     2.558000000     2.110000000     2.451000000
H     2.127000000     1.735000000     1.683000000
H     3.470000000     2.225000000     2.183000000
O    -0.610000000    -4.116000000     2.845000000
H    -0.454000000    -3.945000000     3.773000000
H     0.039000000    -3.581000000     2.389000000
O    -0.941000000     4.237000000    -4.773000000
H    -1.206000000     4.912000000    -4.149000000
H    -0.080000000     4.520000000    -5.081000000
O     0.481000000     6.612000000    -0.226000000
H     0.712000000     6.822000000    -1.131000000
H     0.580000000     5.662000000    -0.168000000
O    -0.230000000     4.734000000     3.678000000
H    -0.732000000     3.920000000     3.627000000
H     0.379000000     4.686000000     2.942000000
O    -4.465000000     5.201000000    -2.598000000
H    -4.737000000     6.105000000    -2.440000000
H    -3.774000000     5.042000000    -1.954000000
