158
-3019.59099
C     1.189000000    -0.474000000    -0.651000000
H     1.990000000    -0.834000000    -1.291000000
C     0.640000000     0.746000000    -0.853000000
H     0.893000000     1.481000000    -1.612000000
C    -0.446000000     1.138000000    -0.102000000
H    -0.871000000     2.142000000    -0.164000000
C    -1.005000000     0.156000000     0.689000000
H    -1.901000000     0.455000000     1.228000000
C    -0.512000000    -1.119000000     0.888000000
H    -0.960000000    -1.890000000     1.509000000
C     0.658000000    -1.400000000     0.259000000
C     1.349000000    -2.731000000     0.339000000
O     2.553000000    -2.821000000     0.203000000
O     0.693000000    -3.590000000     0.742000000
O    -2.046000000     5.453000000    -3.109000000
H    -1.849000000     5.511000000    -4.044000000
H    -1.243000000     5.111000000    -2.716000000
O    -3.619000000     0.964000000    -1.657000000
H    -3.742000000     1.895000000    -1.470000000
H    -4.094000000     0.515000000    -0.958000000
O    -3.259000000     2.242000000     4.167000000
H    -3.266000000     2.938000000     4.824000000
H    -2.784000000     1.523000000     4.586000000
O    -1.685000000    -0.631000000    -2.802000000
H    -1.068000000    -0.179000000    -2.228000000
H    -2.547000000    -0.422000000    -2.440000000
O     1.318000000     3.798000000     1.824000000
H     2.108000000     3.984000000     2.332000000
H     1.264000000     2.843000000     1.806000000
O     2.118000000    -7.442000000     1.961000000
H     2.189000000    -7.714000000     2.876000000
H     1.798000000    -8.219000000     1.503000000
O    -2.310000000    -3.028000000    -0.767000000
H    -1.398000000    -3.316000000    -0.773000000
H    -2.563000000    -3.051000000     0.156000000
O    -4.982000000     2.557000000     1.830000000
H    -4.635000000     3.395000000     1.525000000
H    -4.457000000     2.347000000     2.603000000
O     3.991000000     1.460000000    -3.122000000
H     3.301000000     1.542000000    -3.780000000
H     4.484000000     0.685000000    -3.388000000
O    -0.011000000    -1.874000000    -4.352000000
H     0.095000000    -2.737000000    -3.951000000
H    -0.643000000    -1.425000000    -3.790000000
O     5.705000000    -4.667000000     2.945000000
H     5.212000000    -5.043000000     3.674000000
H     5.244000000    -3.854000000     2.739000000
O     2.699000000    -4.891000000    -4.078000000
H     2.883000000    -5.512000000    -3.374000000
H     1.833000000    -4.540000000    -3.868000000
O    -5.559000000    -1.780000000     2.824000000
H    -6.367000000    -2.181000000     3.144000000
H    -4.860000000    -2.262000000     3.265000000
O     4.307000000    -2.453000000     2.109000000
H     3.655000000    -2.191000000     2.759000000
H     3.849000000    -2.389000000     1.271000000
O     0.346000000    -6.004000000    -0.618000000
H     0.523000000    -5.198000000    -0.132000000
H     0.095000000    -6.638000000     0.053000000
O    -0.125000000    -6.879000000     4.349000000
H     0.762000000    -7.239000000     4.331000000
H    -0.202000000    -6.391000000     3.529000000
O    -3.565000000     5.869000000     3.613000000
H    -3.519000000     6.416000000     4.396000000
H    -2.711000000     5.439000000     3.570000000
O     2.558000000    -4.760000000     3.203000000
H     2.670000000    -3.917000000     2.764000000
H     1.652000000    -5.008000000     3.020000000
O    -3.957000000     4.921000000     1.101000000
H    -3.826000000     5.255000000     1.989000000
H    -4.288000000     5.672000000     0.609000000
O    -0.253000000    -4.404000000    -3.189000000
H    -1.202000000    -4.350000000    -3.307000000
H    -0.141000000    -4.905000000    -2.381000000
O     5.964000000    -5.661000000    -0.528000000
H     5.095000000    -5.416000000    -0.209000000
H     6.411000000    -4.827000000    -0.671000000
O    -4.623000000    -2.167000000    -2.007000000
H    -5.179000000    -2.384000000    -1.259000000
H    -3.736000000    -2.378000000    -1.715000000
O    -4.051000000     3.585000000    -1.468000000
H    -3.872000000     4.129000000    -2.235000000
H    -3.695000000     4.084000000    -0.733000000
O     5.830000000    -0.472000000     3.694000000
H     5.592000000    -1.230000000     3.161000000
H     5.362000000     0.260000000     3.292000000
O     1.890000000    -7.328000000    -2.418000000
H     1.340000000    -6.826000000    -1.816000000
H     1.378000000    -8.113000000    -2.611000000
O     3.281000000    -5.412000000     0.295000000
H     3.091000000    -5.823000000     1.139000000
H     2.748000000    -4.617000000     0.291000000
O     4.387000000     0.963000000    -0.265000000
H     4.181000000     1.326000000    -1.126000000
H     4.536000000     0.031000000    -0.427000000
O     2.679000000     3.745000000    -1.515000000
H     3.281000000     3.040000000    -1.755000000
H     2.695000000     4.339000000    -2.266000000
O     4.777000000     1.621000000     2.541000000
H     4.358000000     2.370000000     2.965000000
H     4.429000000     1.624000000     1.650000000
O     2.163000000    -0.365000000    -4.525000000
H     1.576000000    -1.121000000    -4.554000000
H     3.028000000    -0.725000000    -4.717000000
O    -3.864000000     1.512000000    -4.620000000
H    -3.497000000     1.858000000    -3.806000000
H    -4.811000000     1.604000000    -4.514000000
O    -6.629000000     2.800000000    -0.792000000
H    -5.872000000     2.842000000    -1.375000000
H    -6.259000000     2.882000000     0.087000000
O    -3.256000000    -4.715000000     1.656000000
H    -3.918000000    -4.739000000     2.346000000
H    -3.454000000    -5.473000000     1.106000000
O     5.289000000    -0.600000000    -4.312000000
H     5.899000000    -1.195000000    -3.875000000
H     5.768000000    -0.288000000    -5.080000000
O     0.484000000     2.111000000    -4.254000000
H     0.632000000     1.167000000    -4.208000000
H    -0.176000000     2.217000000    -4.939000000
O    -5.469000000     0.039000000     0.367000000
H    -5.653000000    -0.713000000     0.930000000
H    -5.389000000     0.777000000     0.971000000
O     5.159000000    -1.868000000    -0.664000000
H     4.269000000    -2.200000000    -0.546000000
H     5.387000000    -2.106000000    -1.562000000
O     1.888000000    -1.408000000     3.714000000
H     2.396000000    -1.246000000     4.508000000
H     0.995000000    -1.554000000     4.027000000
O     0.181000000     4.038000000    -2.316000000
H     0.966000000     3.899000000    -1.787000000
H     0.160000000     3.292000000    -2.915000000
O     0.089000000     7.100000000     2.122000000
H    -0.351000000     7.785000000     2.625000000
H     0.457000000     7.557000000     1.366000000
O     2.267000000     5.774000000     0.286000000
H     1.566000000     5.484000000     0.870000000
H     2.399000000     5.040000000    -0.313000000
O    -0.563000000    -2.152000000     4.685000000
H    -0.870000000    -3.055000000     4.769000000
H    -0.109000000    -1.976000000     5.509000000
O     1.253000000     0.925000000     2.489000000
H     1.060000000     0.857000000     1.554000000
H     1.379000000     0.020000000     2.775000000
O     0.457000000     2.114000000     4.901000000
H     1.239000000     2.514000000     5.281000000
H     0.773000000     1.671000000     4.113000000
O    -0.547000000    -5.150000000     2.525000000
H    -1.491000000    -5.059000000     2.398000000
H    -0.162000000    -4.491000000     1.947000000
O     0.724000000     7.172000000    -2.401000000
H     0.538000000     6.276000000    -2.120000000
H    -0.064000000     7.445000000    -2.870000000
O    -1.134000000     4.741000000     2.968000000
H    -0.649000000     5.463000000     2.568000000
H    -0.679000000     3.953000000     2.673000000
O    -2.653000000    -0.214000000     5.648000000
H    -2.201000000    -1.027000000     5.422000000
H    -3.571000000    -0.385000000     5.440000000
