158
-3053.26917
C     1.015000000    -0.547000000     0.829000000
H     1.911000000    -0.786000000     1.398000000
C     1.012000000     0.655000000     0.159000000
H     1.899000000     1.278000000     0.081000000
C    -0.085000000     1.045000000    -0.576000000
H    -0.096000000     1.991000000    -1.107000000
C    -1.145000000     0.241000000    -0.742000000
H    -1.900000000     0.570000000    -1.452000000
C    -1.190000000    -1.020000000    -0.053000000
H    -1.991000000    -1.751000000    -0.139000000
C    -0.111000000    -1.358000000     0.783000000
C     0.059000000    -2.631000000     1.451000000
O     1.143000000    -2.972000000     1.863000000
O    -0.828000000    -3.417000000     1.744000000
O    -0.581000000     1.819000000     4.386000000
H    -1.384000000     1.337000000     4.582000000
H     0.123000000     1.201000000     4.580000000
O    -4.253000000     4.075000000     1.766000000
H    -4.111000000     3.630000000     2.602000000
H    -4.544000000     3.382000000     1.173000000
O    -0.061000000     5.816000000     1.855000000
H     0.155000000     5.793000000     0.923000000
H     0.409000000     5.070000000     2.228000000
O    -2.736000000     6.026000000     0.682000000
H    -1.889000000     5.949000000     1.121000000
H    -3.283000000     5.359000000     1.097000000
O    -0.987000000     0.651000000    -4.321000000
H    -1.842000000     0.383000000    -3.985000000
H    -0.358000000     0.260000000    -3.714000000
O    -4.921000000     1.867000000     0.379000000
H    -5.056000000     0.943000000     0.588000000
H    -4.829000000     1.887000000    -0.573000000
O     0.382000000    -2.678000000     6.320000000
H    -0.506000000    -2.541000000     6.651000000
H     0.588000000    -3.583000000     6.555000000
O     1.858000000     3.405000000    -5.997000000
H     0.966000000     3.726000000    -5.862000000
H     2.063000000     3.640000000    -6.902000000
O     0.176000000     6.503000000    -0.804000000
H    -0.459000000     7.212000000    -0.698000000
H     0.062000000     6.213000000    -1.708000000
O     3.428000000    -4.323000000     2.232000000
H     4.133000000    -3.827000000     2.650000000
H     2.650000000    -3.779000000     2.352000000
O    -5.929000000    -1.630000000    -2.724000000
H    -5.113000000    -2.056000000    -2.987000000
H    -6.198000000    -1.131000000    -3.496000000
O    -7.287000000    -0.695000000     1.251000000
H    -7.931000000    -1.296000000     0.876000000
H    -6.453000000    -0.971000000     0.870000000
O     4.403000000    -1.979000000    -2.312000000
H     5.174000000    -2.031000000    -1.747000000
H     3.668000000    -2.179000000    -1.733000000
O     3.636000000    -0.706000000     5.897000000
H     4.368000000    -0.639000000     5.284000000
H     2.875000000    -0.413000000     5.395000000
O     3.052000000    -6.852000000     1.635000000
H     3.753000000    -6.813000000     0.985000000
H     3.052000000    -5.985000000     2.040000000
O    -5.909000000     4.270000000    -1.704000000
H    -5.586000000     3.374000000    -1.800000000
H    -6.399000000     4.261000000    -0.881000000
O    -2.261000000    -5.224000000     4.185000000
H    -1.936000000    -4.936000000     3.332000000
H    -3.132000000    -4.831000000     4.254000000
O     1.134000000    -0.253000000    -2.686000000
H     1.926000000     0.271000000    -2.806000000
H     0.840000000    -0.045000000    -1.799000000
O    -3.271000000    -6.388000000    -0.698000000
H    -3.193000000    -7.229000000    -0.248000000
H    -2.393000000    -6.010000000    -0.653000000
O    -0.748000000    -5.188000000    -0.573000000
H    -0.660000000    -4.660000000     0.220000000
H     0.125000000    -5.554000000    -0.716000000
O    -3.436000000    -3.048000000     2.246000000
H    -2.505000000    -3.179000000     2.067000000
H    -3.879000000    -3.398000000     1.473000000
O     5.663000000    -2.803000000     2.857000000
H     6.491000000    -2.705000000     2.388000000
H     5.680000000    -2.114000000     3.521000000
O     6.498000000    -2.078000000    -0.404000000
H     5.837000000    -1.784000000     0.223000000
H     7.159000000    -1.385000000    -0.398000000
O    -5.027000000    -0.850000000    -0.220000000
H    -4.546000000    -1.674000000    -0.151000000
H    -5.545000000    -0.941000000    -1.020000000
O     1.190000000    -7.470000000    -0.451000000
H     1.844000000    -7.438000000    -1.149000000
H     1.659000000    -7.182000000     0.332000000
O     1.498000000    -0.988000000     4.281000000
H     1.121000000    -1.421000000     5.048000000
H     1.511000000    -1.666000000     3.606000000
O     4.368000000     2.508000000     0.825000000
H     4.948000000     3.057000000     1.352000000
H     3.896000000     3.125000000     0.266000000
O     1.371000000     0.732000000    -5.707000000
H     0.461000000     0.957000000    -5.511000000
H     1.816000000     1.576000000    -5.775000000
O     2.637000000    -3.839000000    -0.363000000
H     3.333000000    -4.185000000     0.195000000
H     2.086000000    -3.328000000     0.230000000
O     1.186000000    -2.953000000    -2.749000000
H     1.136000000    -3.323000000    -1.868000000
H     1.284000000    -2.012000000    -2.609000000
O    -4.798000000     1.793000000    -2.426000000
H    -5.075000000     1.471000000    -3.283000000
H    -3.991000000     2.277000000    -2.602000000
O    -0.750000000     4.375000000    -5.716000000
H    -0.774000000     4.628000000    -6.639000000
H    -1.489000000     3.776000000    -5.613000000
O     2.406000000    -4.955000000     5.666000000
H     3.170000000    -4.623000000     5.195000000
H     1.699000000    -4.933000000     5.022000000
O     0.527000000    -5.025000000     3.727000000
H    -0.112000000    -4.444000000     4.139000000
H     0.691000000    -4.632000000     2.870000000
O    -4.763000000    -3.939000000    -0.156000000
H    -5.582000000    -4.433000000    -0.139000000
H    -4.098000000    -4.585000000    -0.396000000
O     4.947000000    -0.336000000     1.002000000
H     4.675000000    -0.203000000     1.910000000
H     4.700000000     0.475000000     0.557000000
O     3.726000000     0.974000000    -3.052000000
H     4.248000000     1.470000000    -3.683000000
H     4.219000000     0.165000000    -2.916000000
O    -1.383000000    -3.805000000    -2.952000000
H    -0.480000000    -3.490000000    -2.992000000
H    -1.372000000    -4.481000000    -2.274000000
O    -0.443000000     5.098000000    -3.172000000
H    -0.696000000     5.079000000    -4.095000000
H     0.013000000     4.268000000    -3.032000000
O    -3.297000000     4.036000000    -3.407000000
H    -3.967000000     4.696000000    -3.225000000
H    -2.492000000     4.407000000    -3.045000000
O     1.928000000     3.244000000    -2.973000000
H     2.362000000     2.498000000    -2.559000000
H     1.969000000     3.056000000    -3.910000000
O     2.994000000     4.291000000    -0.710000000
H     2.521000000     3.993000000    -1.487000000
H     3.706000000     4.830000000    -1.054000000
O     3.508000000     2.366000000     4.049000000
H     2.836000000     3.048000000     4.047000000
H     3.401000000     1.922000000     3.208000000
O    -2.298000000    -0.404000000     4.885000000
H    -3.219000000    -0.254000000     5.099000000
H    -2.280000000    -1.283000000     4.507000000
O     3.523000000     6.621000000     1.366000000
H     3.377000000     7.303000000     0.711000000
H     3.250000000     5.811000000     0.934000000
O    -3.127000000     6.909000000    -1.725000000
H    -3.139000000     7.816000000    -1.420000000
H    -2.980000000     6.392000000    -0.933000000
O    -5.047000000    -1.310000000     3.843000000
H    -4.356000000    -1.663000000     3.282000000
H    -5.764000000    -1.939000000     3.764000000
O    -3.112000000    -1.890000000    -3.665000000
H    -3.113000000    -1.873000000    -4.622000000
H    -2.372000000    -2.453000000    -3.436000000
