158
-3022.08076
C     1.209000000    -0.723000000    -0.568000000
H     2.091000000    -1.218000000    -0.965000000
C     1.009000000     0.682000000    -0.618000000
H     1.642000000     1.359000000    -1.187000000
C    -0.107000000     1.224000000    -0.021000000
H    -0.130000000     2.311000000    -0.094000000
C    -1.067000000     0.446000000     0.583000000
H    -1.951000000     0.934000000     0.988000000
C    -0.826000000    -0.919000000     0.709000000
H    -1.564000000    -1.421000000     1.329000000
C     0.321000000    -1.506000000     0.197000000
C     0.434000000    -3.004000000     0.390000000
O     1.411000000    -3.528000000    -0.107000000
O    -0.328000000    -3.645000000     1.184000000
O     1.064000000     1.967000000     2.770000000
H     0.533000000     1.936000000     1.974000000
H     0.791000000     2.773000000     3.208000000
O     0.438000000     5.425000000    -1.416000000
H     0.367000000     5.950000000    -2.213000000
H     0.889000000     4.628000000    -1.693000000
O    -2.357000000     0.676000000    -4.353000000
H    -2.279000000     0.266000000    -3.491000000
H    -2.287000000    -0.052000000    -4.971000000
O    -1.610000000     7.020000000     1.559000000
H    -2.122000000     7.513000000     2.200000000
H    -1.723000000     7.502000000     0.740000000
O    -1.136000000     3.517000000     3.753000000
H    -1.975000000     3.099000000     3.948000000
H    -1.179000000     3.718000000     2.818000000
O    -4.891000000     0.241000000     1.646000000
H    -4.911000000     1.039000000     2.174000000
H    -4.888000000     0.552000000     0.741000000
O     1.927000000     5.082000000     4.180000000
H     2.557000000     5.790000000     4.042000000
H     1.965000000     4.567000000     3.375000000
O     1.797000000    -5.782000000     3.278000000
H     1.272000000    -6.465000000     3.695000000
H     1.255000000    -4.995000000     3.335000000
O    -3.853000000    -0.439000000     5.002000000
H    -3.335000000    -0.872000000     5.680000000
H    -3.474000000    -0.746000000     4.178000000
O    -1.348000000    -7.796000000     1.763000000
H    -1.700000000    -7.663000000     2.643000000
H    -2.117000000    -7.788000000     1.194000000
O     3.094000000    -4.563000000    -1.715000000
H     3.789000000    -4.761000000    -1.088000000
H     2.427000000    -4.111000000    -1.198000000
O    -5.770000000    -2.003000000     3.305000000
H    -5.208000000    -1.265000000     3.070000000
H    -6.150000000    -1.756000000     4.148000000
O     3.606000000    -3.048000000    -4.201000000
H     4.495000000    -2.820000000    -3.930000000
H     3.214000000    -3.448000000    -3.424000000
O     3.720000000    -1.692000000     1.407000000
H     3.243000000    -1.090000000     1.978000000
H     3.061000000    -2.324000000     1.121000000
O     0.990000000    -6.108000000     0.729000000
H     0.596000000    -5.244000000     0.606000000
H     1.385000000    -6.069000000     1.600000000
O    -2.992000000    -3.865000000     1.634000000
H    -2.038000000    -3.794000000     1.612000000
H    -3.187000000    -4.203000000     2.509000000
O    -3.868000000     2.912000000    -3.921000000
H    -3.756000000     3.285000000    -3.046000000
H    -3.354000000     2.105000000    -3.906000000
O    -1.180000000    -5.250000000    -3.553000000
H    -1.832000000    -5.426000000    -4.231000000
H    -1.609000000    -5.505000000    -2.736000000
O    -2.769000000    -3.377000000    -0.975000000
H    -3.015000000    -3.387000000    -0.050000000
H    -2.247000000    -4.171000000    -1.092000000
O    -0.883000000     4.475000000     1.260000000
H    -0.109000000     4.481000000     0.698000000
H    -1.079000000     5.400000000     1.408000000
O     6.079000000    -5.647000000    -0.454000000
H     6.622000000    -4.898000000    -0.209000000
H     5.357000000    -5.635000000     0.175000000
O     6.768000000     0.656000000    -0.943000000
H     6.230000000     0.424000000    -0.186000000
H     7.059000000    -0.184000000    -1.297000000
O    -1.713000000    -1.090000000    -2.058000000
H    -2.145000000    -1.773000000    -1.545000000
H    -1.287000000    -0.533000000    -1.407000000
O     0.866000000    -8.022000000    -2.456000000
H     0.555000000    -7.158000000    -2.186000000
H     1.517000000    -8.259000000    -1.795000000
O     3.786000000    -5.109000000     0.825000000
H     3.760000000    -5.983000000     1.216000000
H     2.880000000    -4.935000000     0.568000000
O     4.278000000     2.816000000    -0.466000000
H     3.525000000     2.604000000    -1.016000000
H     5.032000000     2.738000000    -1.051000000
O     2.625000000    -6.278000000    -3.849000000
H     1.939000000    -6.857000000    -3.516000000
H     2.846000000    -5.717000000    -3.105000000
O     1.482000000    -0.912000000    -5.023000000
H     2.425000000    -1.011000000    -4.892000000
H     1.098000000    -1.668000000    -4.579000000
O    -3.510000000     2.529000000     4.869000000
H    -4.065000000     2.709000000     4.111000000
H    -3.568000000     1.581000000     4.989000000
O    -5.033000000     1.121000000    -1.300000000
H    -4.165000000     1.521000000    -1.350000000
H    -5.588000000     1.799000000    -0.914000000
O    -2.292000000    -4.627000000     4.716000000
H    -2.250000000    -5.058000000     5.569000000
H    -3.195000000    -4.757000000     4.425000000
O    -1.344000000    -6.311000000    -0.859000000
H    -1.929000000    -6.936000000    -0.430000000
H    -0.613000000    -6.209000000    -0.250000000
O     5.389000000     0.623000000     1.211000000
H     4.977000000    -0.225000000     1.376000000
H     4.655000000     1.229000000     1.109000000
O     4.386000000     0.683000000    -3.960000000
H     4.481000000     1.100000000    -4.816000000
H     4.759000000     1.313000000    -3.344000000
O    -0.127000000    -2.889000000    -3.643000000
H    -0.668000000    -3.649000000    -3.431000000
H    -0.289000000    -2.273000000    -2.928000000
O     0.217000000     1.563000000    -4.766000000
H     0.664000000     0.724000000    -4.872000000
H    -0.714000000     1.349000000    -4.837000000
O     1.751000000    -1.729000000     5.472000000
H     0.888000000    -1.320000000     5.523000000
H     1.588000000    -2.585000000     5.075000000
O    -3.173000000     3.508000000    -1.075000000
H    -2.862000000     3.402000000    -0.176000000
H    -2.947000000     4.409000000    -1.303000000
O     2.216000000     3.442000000    -2.677000000
H     2.719000000     3.709000000    -3.447000000
H     1.527000000     2.877000000    -3.025000000
O     4.917000000    -2.659000000     3.656000000
H     5.676000000    -2.076000000     3.641000000
H     4.543000000    -2.589000000     2.778000000
O     2.606000000    -0.252000000     3.335000000
H     2.078000000     0.545000000     3.302000000
H     2.418000000    -0.628000000     4.195000000
O     3.734000000     2.670000000     3.369000000
H     3.890000000     2.572000000     4.308000000
H     2.836000000     2.366000000     3.242000000
O     3.030000000     4.255000000     1.431000000
H     3.424000000     3.799000000     2.174000000
H     3.574000000     4.008000000     0.683000000
O     0.284000000    -3.231000000     3.790000000
H    -0.180000000    -3.347000000     2.961000000
H    -0.376000000    -3.407000000     4.461000000
O     1.619000000     6.694000000     1.021000000
H     1.085000000     6.373000000     0.294000000
H     2.292000000     6.024000000     1.139000000
O    -2.492000000     6.138000000    -2.242000000
H    -2.598000000     6.966000000    -1.774000000
H    -1.596000000     5.865000000    -2.044000000
O    -5.440000000    -3.441000000     0.814000000
H    -5.651000000    -2.809000000     1.501000000
H    -4.525000000    -3.671000000     0.973000000
O    -4.770000000     2.747000000     2.636000000
H    -4.319000000     3.531000000     2.322000000
H    -5.633000000     3.059000000     2.907000000
