158
-3052.67558
C     1.379000000     0.159000000     0.507000000
H     2.424000000     0.258000000     0.792000000
C     0.786000000     0.999000000    -0.389000000
H     1.195000000     1.918000000    -0.801000000
C    -0.488000000     0.793000000    -0.737000000
H    -0.971000000     1.464000000    -1.397000000
C    -1.190000000    -0.323000000    -0.269000000
H    -2.241000000    -0.461000000    -0.512000000
C    -0.641000000    -1.251000000     0.639000000
H    -1.188000000    -2.146000000     0.924000000
C     0.657000000    -0.981000000     0.985000000
C     1.290000000    -1.953000000     1.967000000
O     2.308000000    -1.595000000     2.520000000
O     0.779000000    -2.996000000     2.284000000
O     2.777000000    -3.028000000     4.592000000
H     2.375000000    -2.560000000     3.861000000
H     3.703000000    -2.790000000     4.549000000
O     3.307000000     4.482000000    -3.972000000
H     2.856000000     3.880000000    -3.381000000
H     2.896000000     4.333000000    -4.824000000
O    -0.178000000     6.991000000    -0.520000000
H    -0.212000000     7.948000000    -0.528000000
H     0.277000000     6.775000000     0.294000000
O     0.862000000     2.428000000    -3.556000000
H     0.766000000     3.368000000    -3.402000000
H     0.255000000     2.238000000    -4.271000000
O    -2.466000000     5.079000000    -4.243000000
H    -2.504000000     5.086000000    -3.287000000
H    -3.176000000     4.494000000    -4.507000000
O     2.204000000    -3.398000000    -1.240000000
H     1.496000000    -2.940000000    -1.692000000
H     2.982000000    -2.869000000    -1.414000000
O    -0.773000000     1.503000000     2.651000000
H    -0.639000000     1.098000000     1.794000000
H    -0.532000000     0.822000000     3.278000000
O     1.762000000     6.289000000     1.527000000
H     2.707000000     6.166000000     1.616000000
H     1.386000000     5.444000000     1.775000000
O     4.105000000     3.213000000    -0.373000000
H     4.535000000     3.973000000    -0.765000000
H     4.045000000     2.578000000    -1.086000000
O    -2.358000000    -0.330000000    -5.843000000
H    -2.073000000    -1.067000000    -5.303000000
H    -1.643000000    -0.199000000    -6.465000000
O     6.397000000     1.418000000     2.223000000
H     6.768000000     2.272000000     2.448000000
H     5.731000000     1.263000000     2.892000000
O     5.053000000    -5.093000000     2.674000000
H     5.320000000    -4.817000000     3.551000000
H     4.097000000    -5.118000000     2.712000000
O    -5.628000000     1.413000000    -0.198000000
H    -5.630000000     0.456000000    -0.172000000
H    -6.163000000     1.633000000    -0.961000000
O    -4.363000000    -5.675000000     3.645000000
H    -3.775000000    -4.950000000     3.434000000
H    -3.780000000    -6.411000000     3.830000000
O     0.821000000    -5.278000000     0.217000000
H     0.984000000    -4.385000000    -0.086000000
H     1.233000000    -5.318000000     1.079000000
O    -3.362000000    -5.294000000    -2.214000000
H    -3.792000000    -5.181000000    -3.062000000
H    -3.812000000    -4.682000000    -1.633000000
O    -1.778000000    -3.920000000     6.366000000
H    -1.709000000    -3.551000000     5.485000000
H    -2.594000000    -3.560000000     6.713000000
O    -3.525000000    -1.417000000    -2.608000000
H    -2.741000000    -1.712000000    -3.073000000
H    -4.204000000    -2.039000000    -2.867000000
O     4.804000000     1.180000000    -2.174000000
H     5.563000000     1.555000000    -2.620000000
H     5.177000000     0.561000000    -1.547000000
O    -4.687000000     3.585000000    -2.351000000
H    -5.530000000     3.257000000    -2.037000000
H    -4.358000000     2.892000000    -2.924000000
O     4.845000000    -1.131000000     1.766000000
H     3.901000000    -1.289000000     1.739000000
H     5.003000000    -0.770000000     2.638000000
O     2.465000000    -7.872000000     2.709000000
H     2.172000000    -8.021000000     3.608000000
H     2.468000000    -6.920000000     2.613000000
O     2.344000000    -5.199000000     2.861000000
H     1.878000000    -4.378000000     2.705000000
H     2.158000000    -5.411000000     3.775000000
O     0.793000000     3.715000000     2.503000000
H     1.699000000     3.457000000     2.676000000
H     0.334000000     2.888000000     2.356000000
O    -3.039000000     4.010000000     0.989000000
H    -3.315000000     3.700000000     1.852000000
H    -2.647000000     3.242000000     0.573000000
O    -1.369000000    -7.593000000     3.204000000
H    -0.726000000    -7.152000000     3.759000000
H    -1.598000000    -8.387000000     3.688000000
O    -3.073000000     2.180000000     3.806000000
H    -2.979000000     1.611000000     4.570000000
H    -2.271000000     2.040000000     3.303000000
O     6.541000000    -0.102000000    -0.162000000
H     6.921000000     0.722000000     0.142000000
H     6.097000000    -0.460000000     0.607000000
O     3.539000000     0.947000000     3.625000000
H     3.816000000     0.872000000     4.538000000
H     3.258000000     0.063000000     3.386000000
O     3.389000000     3.280000000     2.333000000
H     3.456000000     2.335000000     2.471000000
H     3.294000000     3.378000000     1.386000000
O    -4.284000000     1.145000000    -3.880000000
H    -3.684000000     0.829000000    -4.556000000
H    -4.291000000     0.451000000    -3.222000000
O     1.268000000    -4.113000000     6.867000000
H     0.333000000    -3.909000000     6.895000000
H     1.543000000    -3.853000000     5.988000000
O    -4.234000000    -4.271000000     0.285000000
H    -4.791000000    -4.984000000     0.599000000
H    -3.355000000    -4.504000000     0.585000000
O    -1.518000000    -3.705000000     3.760000000
H    -2.085000000    -3.087000000     3.299000000
H    -0.655000000    -3.580000000     3.364000000
O     1.862000000     1.356000000    -6.717000000
H     2.161000000     0.727000000    -7.374000000
H     2.099000000     0.958000000    -5.879000000
O    -5.097000000    -1.496000000    -0.485000000
H    -4.469000000    -1.363000000    -1.195000000
H    -4.748000000    -2.239000000     0.007000000
O     3.015000000    -0.512000000    -3.888000000
H     3.791000000    -0.534000000    -4.448000000
H     3.086000000     0.316000000    -3.412000000
O    -1.968000000    -5.171000000     1.281000000
H    -1.142000000    -5.163000000     0.796000000
H    -1.868000000    -5.885000000     1.911000000
O     4.948000000    -1.172000000     4.870000000
H     4.510000000    -0.647000000     5.540000000
H     5.882000000    -1.046000000     5.040000000
O    -1.496000000    -2.295000000    -4.149000000
H    -1.336000000    -3.044000000    -4.723000000
H    -0.739000000    -2.276000000    -3.563000000
O    -0.814000000    -4.999000000    -2.282000000
H    -0.436000000    -5.361000000    -1.481000000
H    -1.752000000    -5.175000000    -2.205000000
O     5.921000000    -3.275000000     0.730000000
H     5.563000000    -2.435000000     1.017000000
H     5.552000000    -3.914000000     1.340000000
O     0.358000000     5.038000000    -3.575000000
H     0.602000000     5.964000000    -3.595000000
H    -0.583000000     5.035000000    -3.748000000
O     0.815000000    -1.469000000    -2.603000000
H     1.459000000    -1.087000000    -3.199000000
H     0.582000000    -0.753000000    -2.012000000
O    -5.911000000     1.791000000     2.652000000
H    -5.628000000     1.667000000     1.746000000
H    -5.139000000     1.575000000     3.176000000
O     0.376000000    -0.142000000     4.459000000
H     1.191000000    -0.606000000     4.267000000
H     0.146000000    -0.418000000     5.346000000
O    -2.641000000     5.916000000    -1.443000000
H    -1.811000000     6.013000000    -0.977000000
H    -3.140000000     5.290000000    -0.918000000
O    -3.059000000    -1.671000000     2.775000000
H    -3.620000000    -1.174000000     3.371000000
H    -3.589000000    -1.780000000     1.985000000
