158
-3001.06759
C     1.518000000    -0.034000000     0.246000000
H     2.596000000     0.069000000     0.331000000
C     0.773000000     1.087000000     0.210000000
H     1.149000000     2.105000000     0.262000000
C    -0.575000000     1.041000000    -0.047000000
H    -1.123000000     2.033000000     0.016000000
C    -1.279000000    -0.179000000    -0.205000000
H    -2.352000000    -0.146000000    -0.373000000
C    -0.553000000    -1.324000000    -0.152000000
H    -1.079000000    -2.255000000    -0.344000000
C     0.871000000    -1.309000000     0.101000000
C     1.649000000    -2.644000000     0.160000000
O     2.755000000    -2.649000000     0.740000000
O     1.153000000    -3.678000000    -0.338000000
O     2.874000000    -4.799000000     2.080000000
H     1.928000000    -4.932000000     2.131000000
H     2.980000000    -4.049000000     1.493000000
O     7.172000000     1.805000000    -1.073000000
H     6.812000000     2.317000000    -1.797000000
H     6.439000000     1.697000000    -0.467000000
O    -0.900000000     1.757000000    -3.315000000
H    -1.084000000     2.068000000    -4.202000000
H    -0.808000000     0.809000000    -3.409000000
O    -3.054000000     4.812000000     4.530000000
H    -2.217000000     5.071000000     4.145000000
H    -3.143000000     3.885000000     4.307000000
O    -1.664000000    -0.802000000    -4.338000000
H    -0.728000000    -0.960000000    -4.458000000
H    -2.090000000    -1.446000000    -4.904000000
O    -5.857000000     0.952000000     0.680000000
H    -6.443000000     1.473000000     0.130000000
H    -5.116000000     1.532000000     0.857000000
O     2.866000000    -2.853000000    -4.851000000
H     3.762000000    -2.517000000    -4.840000000
H     2.688000000    -3.091000000    -3.942000000
O    -2.892000000     2.126000000     3.837000000
H    -2.762000000     1.698000000     4.684000000
H    -2.029000000     2.105000000     3.423000000
O    -5.751000000     3.574000000     4.276000000
H    -5.944000000     2.661000000     4.062000000
H    -4.842000000     3.698000000     4.002000000
O     4.232000000     2.448000000    -1.057000000
H     4.529000000     3.293000000    -0.721000000
H     4.597000000     1.806000000    -0.448000000
O     5.331000000    -1.710000000     1.585000000
H     4.472000000    -2.021000000     1.301000000
H     5.954000000    -2.211000000     1.058000000
O     4.157000000    -3.728000000    -1.471000000
H     4.990000000    -3.908000000    -1.035000000
H     3.585000000    -3.410000000    -0.772000000
O     6.545000000    -3.427000000     0.014000000
H     6.795000000    -2.947000000    -0.775000000
H     7.364000000    -3.807000000     0.333000000
O     2.080000000    -5.936000000    -1.020000000
H     2.904000000    -5.648000000    -1.413000000
H     1.624000000    -5.125000000    -0.796000000
O     5.861000000    -4.938000000     1.959000000
H     6.117000000    -4.351000000     1.247000000
H     4.908000000    -4.995000000     1.891000000
O    -5.286000000    -4.720000000    -0.328000000
H    -5.300000000    -3.922000000     0.201000000
H    -4.702000000    -4.513000000    -1.058000000
O     0.114000000    -3.666000000    -2.921000000
H     0.449000000    -2.770000000    -2.945000000
H     0.408000000    -4.009000000    -2.077000000
O     5.179000000     0.803000000     0.795000000
H     6.050000000     1.064000000     1.094000000
H     5.067000000    -0.086000000     1.132000000
O     2.645000000    -2.626000000     5.396000000
H     2.983000000    -1.844000000     4.960000000
H     1.998000000    -2.293000000     6.017000000
O    -2.551000000    -4.978000000    -2.255000000
H    -2.672000000    -5.262000000    -3.161000000
H    -1.672000000    -4.598000000    -2.238000000
O     3.670000000     0.179000000    -3.267000000
H     4.526000000     0.194000000    -3.695000000
H     3.835000000     0.525000000    -2.390000000
O     1.168000000    -7.843000000     1.074000000
H     0.501000000    -8.154000000     0.463000000
H     1.668000000    -7.197000000     0.575000000
O    -0.127000000    -4.985000000     1.684000000
H     0.190000000    -4.430000000     0.972000000
H    -0.453000000    -4.370000000     2.340000000
O    -0.330000000     2.244000000     2.871000000
H    -0.336000000     3.052000000     2.359000000
H    -0.106000000     1.561000000     2.238000000
O    -4.407000000     0.174000000    -2.284000000
H    -4.250000000     0.486000000    -1.392000000
H    -3.536000000     0.134000000    -2.680000000
O    -3.770000000     2.704000000     1.444000000
H    -3.360000000     2.939000000     2.276000000
H    -4.059000000     3.539000000     1.075000000
O    -5.126000000    -2.008000000     0.512000000
H    -5.080000000    -1.869000000    -0.434000000
H    -5.976000000    -1.648000000     0.766000000
O     0.108000000     6.187000000    -0.081000000
H    -0.442000000     6.851000000    -0.497000000
H     0.127000000     5.464000000    -0.709000000
O    -2.590000000    -1.680000000     2.374000000
H    -3.485000000    -1.909000000     2.125000000
H    -2.379000000    -0.917000000     1.835000000
O     4.282000000    -0.465000000     4.038000000
H     4.913000000    -0.859000000     3.434000000
H     4.720000000    -0.486000000     4.889000000
O    -3.003000000    -6.714000000    -0.187000000
H    -2.752000000    -5.968000000    -0.731000000
H    -3.791000000    -6.422000000     0.271000000
O     3.083000000     3.618000000    -4.009000000
H     3.511000000     4.398000000    -3.654000000
H     3.123000000     2.978000000    -3.299000000
O     0.134000000    -6.052000000    -4.302000000
H     0.063000000    -5.163000000    -3.953000000
H    -0.772000000    -6.327000000    -4.445000000
O     1.355000000    -8.426000000    -2.358000000
H     1.567000000    -7.600000000    -1.925000000
H     1.618000000    -8.293000000    -3.269000000
O     0.980000000    -0.946000000    -2.998000000
H     0.996000000    -0.634000000    -2.093000000
H     1.780000000    -0.593000000    -3.387000000
O    -5.568000000     0.909000000     3.621000000
H    -5.977000000     0.050000000     3.724000000
H    -5.557000000     1.057000000     2.675000000
O     3.010000000    -7.547000000     2.943000000
H     3.083000000    -6.616000000     2.731000000
H     2.260000000    -7.851000000     2.433000000
O     4.514000000    -5.292000000    -4.122000000
H     4.471000000    -4.642000000    -3.422000000
H     5.051000000    -5.998000000    -3.762000000
O     4.864000000     2.282000000     4.190000000
H     4.630000000     1.509000000     3.676000000
H     4.443000000     2.143000000     5.038000000
O    -0.800000000    -3.296000000     3.763000000
H    -0.446000000    -2.695000000     4.418000000
H    -1.506000000    -2.805000000     3.344000000
O    -0.140000000     3.867000000     5.053000000
H     0.041000000     4.777000000     4.817000000
H    -0.357000000     3.443000000     4.223000000
O     0.806000000     0.912000000     5.142000000
H     1.324000000     0.707000000     4.364000000
H     0.664000000     1.857000000     5.093000000
O    -3.692000000     5.389000000    -1.203000000
H    -3.582000000     5.546000000    -0.265000000
H    -4.438000000     5.934000000    -1.451000000
O    -2.671000000     4.313000000    -3.531000000
H    -1.965000000     3.704000000    -3.319000000
H    -3.003000000     4.600000000    -2.680000000
O    -1.040000000     4.310000000     1.487000000
H    -1.874000000     4.709000000     1.241000000
H    -0.382000000     4.961000000     1.244000000
O     0.073000000     4.419000000    -2.288000000
H     0.212000000     4.753000000    -3.175000000
H     0.540000000     3.583000000    -2.272000000
O    -5.326000000    -2.342000000    -2.957000000
H    -5.006000000    -1.465000000    -2.748000000
H    -4.865000000    -2.580000000    -3.762000000
O    -3.855000000     5.587000000     1.683000000
H    -3.290000000     6.287000000     2.008000000
H    -4.739000000     5.951000000     1.728000000
