158
-3049.16194
C     1.478000000     0.026000000     0.374000000
H     2.542000000     0.189000000     0.527000000
C     0.774000000     1.108000000    -0.181000000
H     1.268000000     2.071000000    -0.279000000
C    -0.591000000     0.961000000    -0.529000000
H    -1.210000000     1.760000000    -0.919000000
C    -1.263000000    -0.236000000    -0.224000000
H    -2.326000000    -0.273000000    -0.447000000
C    -0.532000000    -1.350000000     0.274000000
H    -1.120000000    -2.250000000     0.438000000
C     0.809000000    -1.181000000     0.620000000
C     1.510000000    -2.448000000     1.208000000
O     2.729000000    -2.442000000     1.341000000
O     0.879000000    -3.436000000     1.575000000
O     2.324000000     0.605000000     4.834000000
H     1.568000000     0.019000000     4.806000000
H     3.054000000     0.042000000     5.089000000
O    -3.339000000     2.006000000     2.421000000
H    -2.507000000     1.532000000     2.418000000
H    -4.005000000     1.321000000     2.364000000
O     0.795000000     3.546000000     2.622000000
H     1.580000000     3.338000000     2.115000000
H     0.543000000     2.715000000     3.025000000
O    -1.379000000     5.028000000     1.464000000
H    -0.696000000     4.538000000     1.923000000
H    -2.017000000     4.363000000     1.206000000
O     1.494000000     0.205000000    -2.882000000
H     0.644000000     0.614000000    -3.047000000
H     1.743000000     0.513000000    -2.011000000
O    -2.967000000     3.813000000    -1.249000000
H    -3.005000000     2.926000000    -1.605000000
H    -3.567000000     4.318000000    -1.798000000
O     0.706000000    -1.622000000     4.949000000
H     0.841000000    -2.389000000     4.393000000
H     0.677000000    -1.974000000     5.839000000
O     3.535000000     3.319000000     1.335000000
H     3.436000000     3.298000000     0.383000000
H     4.384000000     2.907000000     1.496000000
O     4.376000000    -3.662000000     4.036000000
H     4.645000000    -4.216000000     3.303000000
H     3.420000000    -3.651000000     3.990000000
O    -4.371000000     5.357000000    -2.932000000
H    -5.221000000     5.543000000    -2.534000000
H    -4.498000000     5.536000000    -3.863000000
O    -5.191000000    -3.119000000     1.338000000
H    -4.644000000    -3.792000000     1.744000000
H    -6.062000000    -3.514000000     1.293000000
O     5.731000000    -4.941000000     2.030000000
H     6.441000000    -5.476000000     2.385000000
H     6.165000000    -4.335000000     1.429000000
O    -5.407000000     4.353000000     0.833000000
H    -4.607000000     4.287000000     0.310000000
H    -5.263000000     3.757000000     1.568000000
O    -1.021000000    -4.719000000    -0.798000000
H    -0.643000000    -5.579000000    -0.611000000
H    -0.288000000    -4.203000000    -1.135000000
O    -1.235000000    -4.485000000     6.045000000
H    -1.029000000    -4.748000000     5.148000000
H    -2.191000000    -4.442000000     6.069000000
O    -4.977000000    -0.509000000    -1.246000000
H    -4.388000000    -1.262000000    -1.285000000
H    -4.556000000     0.093000000    -0.631000000
O    -0.773000000     0.858000000     2.891000000
H    -1.152000000     0.027000000     3.176000000
H    -0.136000000     0.613000000     2.219000000
O     4.774000000     0.309000000     0.157000000
H     5.633000000     0.021000000    -0.153000000
H     4.602000000    -0.235000000     0.925000000
O     1.369000000    -6.954000000     1.882000000
H     1.010000000    -7.232000000     1.040000000
H     2.042000000    -6.313000000     1.656000000
O     3.342000000    -5.031000000     0.869000000
H     2.879000000    -4.196000000     0.938000000
H     4.201000000    -4.861000000     1.258000000
O    -1.403000000    -3.950000000     2.522000000
H    -0.532000000    -3.738000000     2.184000000
H    -1.927000000    -4.127000000     1.741000000
O    -1.526000000     4.844000000     4.319000000
H    -0.781000000     5.427000000     4.467000000
H    -1.609000000     4.800000000     3.367000000
O    -4.635000000    -0.469000000     2.345000000
H    -4.973000000    -1.295000000     2.000000000
H    -3.791000000    -0.699000000     2.733000000
O     2.574000000    -5.868000000    -1.585000000
H     3.286000000    -6.457000000    -1.835000000
H     2.952000000    -5.311000000    -0.905000000
O     4.858000000    -0.898000000     2.452000000
H     4.878000000    -0.515000000     3.328000000
H     4.325000000    -1.687000000     2.548000000
O     3.567000000    -0.960000000    -3.966000000
H     2.764000000    -0.601000000    -3.589000000
H     4.268000000    -0.431000000    -3.584000000
O     4.747000000    -3.186000000    -1.136000000
H     5.556000000    -2.852000000    -0.749000000
H     4.226000000    -3.479000000    -0.388000000
O     3.955000000    -3.641000000    -3.681000000
H     3.822000000    -2.752000000    -4.009000000
H     4.202000000    -3.524000000    -2.764000000
O    -2.617000000     1.626000000    -2.975000000
H    -2.438000000     0.687000000    -2.919000000
H    -2.256000000     1.888000000    -3.822000000
O     0.441000000    -7.371000000    -0.758000000
H     0.657000000    -8.288000000    -0.928000000
H     1.223000000    -6.888000000    -1.026000000
O    -1.338000000     6.630000000    -3.878000000
H    -0.737000000     5.916000000    -4.089000000
H    -1.763000000     6.354000000    -3.066000000
O     0.886000000     3.284000000    -4.222000000
H     1.076000000     3.838000000    -4.979000000
H    -0.034000000     3.041000000    -4.327000000
O    -1.455000000     2.598000000    -5.279000000
H    -1.361000000     1.939000000    -5.967000000
H    -1.754000000     3.383000000    -5.738000000
O    -4.632000000    -0.514000000    -4.282000000
H    -4.879000000    -0.184000000    -3.418000000
H    -4.244000000     0.241000000    -4.724000000
O     1.807000000    -4.278000000     3.885000000
H     1.274000000    -5.069000000     3.962000000
H     1.726000000    -4.022000000     2.966000000
O    -2.942000000    -2.640000000    -1.763000000
H    -2.516000000    -3.466000000    -1.534000000
H    -3.351000000    -2.809000000    -2.611000000
O     7.875000000    -1.333000000     2.822000000
H     7.894000000    -1.156000000     3.763000000
H     6.944000000    -1.390000000     2.607000000
O     1.121000000    -2.641000000    -1.891000000
H     1.525000000    -2.276000000    -2.678000000
H     1.281000000    -1.984000000    -1.213000000
O    -0.273000000    -6.347000000     4.107000000
H    -0.022000000    -6.283000000     3.185000000
H    -0.747000000    -7.176000000     4.168000000
O     2.457000000     4.673000000    -2.163000000
H     1.935000000     4.306000000    -2.877000000
H     2.955000000     3.929000000    -1.824000000
O     0.087000000     0.337000000    -6.250000000
H     0.988000000     0.153000000    -5.985000000
H    -0.451000000    -0.144000000    -5.621000000
O    -3.215000000    -6.775000000    -1.629000000
H    -2.880000000    -7.670000000    -1.569000000
H    -2.450000000    -6.222000000    -1.471000000
O    -1.487000000     5.782000000    -1.224000000
H    -1.785000000     4.908000000    -1.476000000
H    -1.310000000     5.713000000    -0.286000000
O     3.957000000     2.362000000    -1.650000000
H     4.459000000     2.258000000    -2.458000000
H     4.191000000     1.598000000    -1.123000000
O     2.998000000     3.094000000     4.791000000
H     3.859000000     3.134000000     4.374000000
H     2.722000000     2.184000000     4.683000000
O    -2.259000000    -1.584000000     3.388000000
H    -1.840000000    -2.410000000     3.146000000
H    -3.100000000    -1.843000000     3.764000000
O    -1.545000000    -1.020000000    -4.417000000
H    -2.125000000    -1.288000000    -5.130000000
H    -1.564000000    -1.755000000    -3.804000000
O    -4.194000000     3.927000000     4.074000000
H    -3.362000000     4.360000000     4.263000000
H    -3.967000000     3.232000000     3.457000000
