158
-3042.65262
C     1.328000000     0.344000000     0.632000000
H     2.358000000     0.627000000     0.830000000
C     0.633000000     1.153000000    -0.279000000
H     1.017000000     2.082000000    -0.692000000
C    -0.618000000     0.689000000    -0.769000000
H    -1.244000000     1.363000000    -1.400000000
C    -1.233000000    -0.467000000    -0.283000000
H    -2.201000000    -0.758000000    -0.683000000
C    -0.568000000    -1.178000000     0.734000000
H    -1.031000000    -2.128000000     0.989000000
C     0.717000000    -0.847000000     1.121000000
C     1.520000000    -1.652000000     2.053000000
O     2.596000000    -1.278000000     2.466000000
O     1.147000000    -2.753000000     2.392000000
O     2.744000000    -2.260000000     5.186000000
H     2.136000000    -2.088000000     4.467000000
H     3.604000000    -2.301000000     4.768000000
O     2.460000000     4.722000000    -4.524000000
H     2.591000000     4.814000000    -5.468000000
H     2.036000000     3.870000000    -4.423000000
O    -0.278000000     6.878000000    -0.135000000
H     0.499000000     7.336000000     0.184000000
H    -0.029000000     6.558000000    -1.002000000
O    -0.993000000     4.927000000     1.935000000
H    -0.286000000     4.342000000     2.209000000
H    -0.625000000     5.419000000     1.200000000
O    -0.863000000     5.164000000    -5.460000000
H    -0.355000000     4.408000000    -5.163000000
H    -1.662000000     5.137000000    -4.933000000
O    -3.088000000     4.494000000    -3.444000000
H    -2.948000000     5.000000000    -2.643000000
H    -3.469000000     3.669000000    -3.143000000
O    -5.423000000     2.393000000    -0.838000000
H    -5.998000000     1.633000000    -0.756000000
H    -4.855000000     2.185000000    -1.580000000
O     1.865000000    -3.699000000    -0.801000000
H     1.579000000    -2.958000000    -1.336000000
H     2.805000000    -3.563000000    -0.687000000
O     0.828000000     2.911000000     3.255000000
H     1.123000000     2.011000000     3.396000000
H     0.864000000     3.314000000     4.123000000
O     3.916000000     2.538000000    -1.272000000
H     4.442000000     3.141000000    -1.797000000
H     3.883000000     1.735000000    -1.792000000
O    -3.335000000     0.297000000    -5.350000000
H    -2.623000000    -0.165000000    -4.908000000
H    -2.905000000     0.779000000    -6.057000000
O     7.203000000    -0.643000000    -0.191000000
H     6.303000000    -0.855000000     0.057000000
H     7.618000000    -0.368000000     0.627000000
O     3.987000000    -4.129000000     1.800000000
H     4.645000000    -4.182000000     2.492000000
H     3.150000000    -4.124000000     2.265000000
O    -5.056000000    -0.668000000     0.656000000
H    -4.850000000    -1.478000000     0.190000000
H    -4.230000000    -0.185000000     0.673000000
O    -2.146000000    -6.469000000     3.749000000
H    -2.057000000    -6.680000000     4.679000000
H    -1.657000000    -5.653000000     3.642000000
O    -0.090000000    -5.256000000     1.029000000
H     0.539000000    -4.607000000     0.713000000
H    -0.148000000    -5.095000000     1.970000000
O     4.194000000     5.976000000     0.945000000
H     4.372000000     6.208000000     1.856000000
H     3.552000000     5.269000000     0.999000000
O     2.525000000    -1.538000000     7.806000000
H     2.761000000    -1.799000000     6.916000000
H     2.436000000    -2.363000000     8.283000000
O    -2.894000000    -3.487000000    -2.729000000
H    -2.943000000    -4.344000000    -3.150000000
H    -3.728000000    -3.067000000    -2.941000000
O    -6.096000000     3.736000000    -4.019000000
H    -5.919000000     3.533000000    -4.938000000
H    -5.794000000     2.964000000    -3.540000000
O     4.953000000    -1.597000000     0.867000000
H     4.156000000    -1.274000000     1.287000000
H     4.692000000    -2.428000000     0.468000000
O     2.404000000    -6.650000000     1.058000000
H     2.400000000    -5.998000000     1.759000000
H     1.508000000    -6.646000000     0.722000000
O     1.628000000    -5.157000000     3.317000000
H     1.386000000    -4.237000000     3.210000000
H     1.208000000    -5.422000000     4.135000000
O     1.680000000     4.187000000     0.674000000
H     2.132000000     3.645000000     0.027000000
H     1.745000000     3.691000000     1.490000000
O    -3.869000000     4.027000000     0.992000000
H    -3.255000000     3.324000000     1.202000000
H    -4.458000000     3.645000000     0.341000000
O    -6.694000000     0.218000000    -1.510000000
H    -6.234000000    -0.455000000    -1.009000000
H    -7.011000000    -0.239000000    -2.290000000
O    -2.406000000     1.745000000     1.797000000
H    -1.767000000     1.418000000     1.164000000
H    -2.258000000     1.217000000     2.581000000
O     3.833000000     0.983000000     3.208000000
H     4.166000000     1.013000000     4.105000000
H     3.167000000     0.296000000     3.223000000
O     0.866000000     0.579000000    -6.541000000
H     1.787000000     0.607000000    -6.800000000
H     0.775000000    -0.246000000    -6.065000000
O     4.405000000     2.941000000     1.391000000
H     4.095000000     2.115000000     1.762000000
H     4.330000000     2.823000000     0.445000000
O    -4.368000000     1.476000000    -3.164000000
H    -4.976000000     0.777000000    -2.923000000
H    -3.911000000     1.140000000    -3.934000000
O    -1.822000000     1.841000000    -7.081000000
H    -1.079000000     1.270000000    -7.279000000
H    -1.605000000     2.671000000    -7.506000000
O    -5.387000000    -1.810000000    -3.593000000
H    -5.917000000    -2.391000000    -3.047000000
H    -5.761000000    -1.898000000    -4.470000000
O    -0.994000000    -3.812000000     3.406000000
H    -1.815000000    -3.346000000     3.246000000
H    -0.314000000    -3.203000000     3.120000000
O     0.697000000     2.801000000    -4.903000000
H     0.363000000     2.331000000    -5.667000000
H     0.998000000     2.112000000    -4.310000000
O    -3.523000000    -2.981000000     0.153000000
H    -3.133000000    -3.189000000    -0.696000000
H    -3.634000000    -3.831000000     0.579000000
O     2.160000000     0.814000000    -3.545000000
H     1.608000000     0.048000000    -3.388000000
H     3.022000000     0.559000000    -3.215000000
O    -1.259000000    -6.182000000    -1.348000000
H    -0.988000000    -5.867000000    -0.486000000
H    -0.711000000    -6.950000000    -1.507000000
O     6.069000000    -1.418000000     3.431000000
H     5.586000000    -1.445000000     2.605000000
H     6.725000000    -0.733000000     3.302000000
O     0.437000000     5.651000000    -2.494000000
H     0.237000000     5.075000000    -3.232000000
H     1.387000000     5.762000000    -2.528000000
O    -1.207000000    -1.735000000    -4.405000000
H    -1.496000000    -2.241000000    -3.646000000
H    -1.714000000    -2.089000000    -5.136000000
O    -3.623000000    -5.328000000     1.623000000
H    -2.933000000    -5.627000000     2.216000000
H    -4.438000000    -5.573000000     2.061000000
O     0.830000000    -1.589000000    -2.250000000
H     0.167000000    -1.671000000    -2.935000000
H     0.363000000    -1.197000000    -1.511000000
O     5.495000000     3.424000000     3.655000000
H     5.086000000     2.827000000     4.281000000
H     5.096000000     3.201000000     2.814000000
O     0.746000000    -0.050000000     5.081000000
H     1.195000000     0.314000000     5.844000000
H     0.374000000    -0.875000000     5.394000000
O    -1.928000000     0.501000000     4.622000000
H    -0.975000000     0.578000000     4.670000000
H    -2.128000000    -0.303000000     5.101000000
O    -2.813000000     5.864000000    -0.886000000
H    -1.917000000     6.107000000    -0.652000000
H    -3.089000000     5.268000000    -0.190000000
O    -3.260000000    -1.914000000     3.029000000
H    -3.958000000    -1.324000000     3.313000000
H    -3.529000000    -2.200000000     2.156000000
