158
-3049.02094
C     1.422000000     0.158000000    -0.357000000
H     2.417000000     0.533000000    -0.581000000
C     0.696000000     0.956000000     0.526000000
H     1.131000000     1.740000000     1.140000000
C    -0.683000000     0.691000000     0.770000000
H    -1.271000000     1.247000000     1.461000000
C    -1.286000000    -0.350000000     0.130000000
H    -2.331000000    -0.562000000     0.341000000
C    -0.533000000    -1.183000000    -0.653000000
H    -1.022000000    -2.055000000    -1.079000000
C     0.839000000    -0.951000000    -1.019000000
C     1.679000000    -1.723000000    -2.020000000
O     2.845000000    -1.372000000    -2.213000000
O     1.169000000    -2.587000000    -2.658000000
O     0.493000000    -5.932000000    -4.421000000
H     0.623000000    -5.492000000    -5.261000000
H    -0.186000000    -5.418000000    -3.984000000
O    -2.674000000    -6.320000000    -3.797000000
H    -2.265000000    -5.563000000    -3.377000000
H    -1.988000000    -6.987000000    -3.809000000
O     4.098000000    -1.854000000     2.371000000
H     4.241000000    -1.502000000     1.492000000
H     4.978000000    -1.972000000     2.727000000
O    -5.940000000     3.611000000     2.198000000
H    -5.736000000     3.824000000     3.109000000
H    -6.372000000     4.395000000     1.859000000
O    -0.479000000     1.318000000    -2.458000000
H     0.106000000     2.063000000    -2.318000000
H    -0.250000000     0.701000000    -1.763000000
O     6.793000000     1.533000000    -4.004000000
H     5.883000000     1.530000000    -3.710000000
H     6.821000000     0.883000000    -4.707000000
O    -5.339000000    -2.325000000    -2.263000000
H    -4.682000000    -2.897000000    -1.866000000
H    -4.963000000    -2.079000000    -3.108000000
O     5.069000000    -3.956000000    -6.071000000
H     4.564000000    -3.280000000    -5.618000000
H     5.396000000    -4.521000000    -5.371000000
O     2.788000000    -5.523000000    -0.250000000
H     2.015000000    -5.115000000     0.140000000
H     2.682000000    -5.384000000    -1.191000000
O    -0.933000000     5.205000000     2.824000000
H    -1.140000000     4.561000000     3.500000000
H    -0.817000000     4.688000000     2.027000000
O    -2.078000000     1.391000000     4.192000000
H    -2.530000000     2.021000000     3.631000000
H    -2.603000000     1.361000000     4.992000000
O     4.830000000    -0.952000000    -0.323000000
H     3.958000000    -0.752000000    -0.663000000
H     5.165000000    -1.630000000    -0.910000000
O     5.188000000    -2.368000000    -3.342000000
H     4.271000000    -2.204000000    -3.120000000
H     5.197000000    -3.269000000    -3.668000000
O     0.055000000    -4.792000000     1.501000000
H    -0.604000000    -4.246000000     1.929000000
H     0.890000000    -4.381000000     1.725000000
O     2.422000000    -4.869000000    -2.883000000
H     1.914000000    -5.568000000    -3.294000000
H     1.834000000    -4.114000000    -2.882000000
O    -5.684000000     0.327000000     3.593000000
H    -5.413000000     0.857000000     2.844000000
H    -6.472000000    -0.127000000     3.294000000
O    -0.324000000    -0.913000000    -4.254000000
H    -0.278000000    -0.052000000    -3.839000000
H     0.065000000    -1.509000000    -3.614000000
O     5.468000000     1.601000000     0.359000000
H     6.387000000     1.609000000     0.627000000
H     5.326000000     0.717000000     0.019000000
O     2.644000000    -2.533000000    -4.926000000
H     2.025000000    -3.049000000    -5.442000000
H     2.238000000    -2.465000000    -4.062000000
O     2.525000000    -4.109000000     2.486000000
H     2.692000000    -3.986000000     3.420000000
H     2.830000000    -3.298000000     2.079000000
O    -1.082000000    -4.355000000    -2.623000000
H    -1.215000000    -5.027000000    -1.954000000
H    -0.255000000    -3.938000000    -2.382000000
O    -5.691000000     4.122000000    -1.087000000
H    -5.149000000     3.700000000    -0.421000000
H    -6.529000000     4.276000000    -0.651000000
O    -1.374000000    -6.165000000    -0.804000000
H    -1.331000000    -7.118000000    -0.730000000
H    -0.855000000    -5.844000000    -0.067000000
O     5.170000000    -4.989000000    -3.282000000
H     4.260000000    -5.041000000    -2.991000000
H     5.619000000    -5.675000000    -2.787000000
O    -1.935000000    -3.557000000     3.290000000
H    -2.207000000    -2.702000000     3.623000000
H    -2.063000000    -4.153000000     4.027000000
O     0.589000000    -0.382000000     3.477000000
H     0.419000000     0.036000000     2.633000000
H    -0.198000000    -0.209000000     3.993000000
O    -3.219000000     1.767000000    -3.230000000
H    -3.809000000     1.331000000    -2.616000000
H    -2.351000000     1.673000000    -2.838000000
O    -3.460000000     2.861000000    -0.244000000
H    -2.953000000     3.182000000    -0.989000000
H    -3.789000000     2.008000000    -0.528000000
O    -3.803000000    -1.529000000    -4.414000000
H    -3.473000000    -2.126000000    -5.086000000
H    -3.020000000    -1.093000000    -4.076000000
O     7.369000000    -2.387000000    -1.711000000
H     7.997000000    -3.059000000    -1.975000000
H     6.617000000    -2.522000000    -2.287000000
O    -0.592000000     4.130000000     0.353000000
H    -0.859000000     3.974000000    -0.553000000
H     0.329000000     4.385000000     0.291000000
O    -3.035000000    -1.458000000     5.051000000
H    -2.252000000    -1.635000000     5.572000000
H    -3.173000000    -0.515000000     5.139000000
O    -4.000000000    -4.471000000    -1.332000000
H    -3.775000000    -4.617000000    -0.413000000
H    -3.165000000    -4.528000000    -1.795000000
O    -3.446000000     1.246000000     6.627000000
H    -3.195000000     1.006000000     7.519000000
H    -4.344000000     1.567000000     6.710000000
O     2.026000000     4.360000000     3.313000000
H     1.175000000     4.554000000     2.921000000
H     2.450000000     5.214000000     3.398000000
O     0.077000000    -1.007000000    -6.934000000
H    -0.370000000    -0.639000000    -6.173000000
H     0.926000000    -1.296000000    -6.597000000
O     3.991000000    -0.567000000    -6.319000000
H     4.807000000    -0.220000000    -5.958000000
H     3.529000000    -0.928000000    -5.562000000
O     4.013000000     0.701000000    -3.294000000
H     3.648000000    -0.130000000    -2.990000000
H     3.408000000     1.364000000    -2.963000000
O     1.261000000     3.367000000    -2.490000000
H     1.684000000     3.979000000    -1.887000000
H     1.442000000     3.724000000    -3.359000000
O    -3.237000000     2.985000000     2.336000000
H    -4.130000000     3.267000000     2.531000000
H    -3.159000000     3.076000000     1.386000000
O     4.185000000     3.982000000     1.533000000
H     4.156000000     3.045000000     1.341000000
H     3.761000000     4.065000000     2.388000000
O     2.903000000    -0.657000000     4.516000000
H     3.561000000    -0.670000000     3.821000000
H     2.105000000    -0.354000000     4.084000000
O    -1.983000000     4.361000000    -2.109000000
H    -2.707000000     4.984000000    -2.166000000
H    -1.482000000     4.502000000    -2.912000000
O    -4.721000000     0.374000000    -1.185000000
H    -4.826000000    -0.550000000    -1.412000000
H    -5.444000000     0.556000000    -0.584000000
O    -6.550000000     1.027000000     0.901000000
H    -6.882000000     0.525000000     1.645000000
H    -6.427000000     1.912000000     1.245000000
O    -3.623000000    -5.100000000     1.455000000
H    -3.590000000    -4.313000000     2.000000000
H    -3.822000000    -5.808000000     2.069000000
O    -1.237000000     3.202000000     7.549000000
H    -0.538000000     2.571000000     7.720000000
H    -1.654000000     2.886000000     6.747000000
O     2.209000000     5.062000000    -0.501000000
H     2.932000000     4.763000000     0.050000000
H     2.115000000     5.991000000    -0.290000000
