158
-3007.21415
C     1.247000000     0.716000000    -0.486000000
H     2.049000000     1.391000000    -0.775000000
C     0.039000000     0.736000000    -1.236000000
H    -0.024000000     1.151000000    -2.239000000
C    -1.077000000     0.072000000    -0.631000000
H    -1.931000000    -0.160000000    -1.220000000
C    -0.888000000    -0.673000000     0.505000000
H    -1.670000000    -1.336000000     0.866000000
C     0.288000000    -0.614000000     1.185000000
H     0.432000000    -1.222000000     2.075000000
C     1.377000000     0.059000000     0.752000000
C     2.674000000     0.048000000     1.614000000
O     2.864000000    -0.802000000     2.441000000
O     3.520000000     0.945000000     1.454000000
O     2.659000000     3.326000000     2.418000000
H     2.982000000     2.496000000     2.069000000
H     2.855000000     3.966000000     1.734000000
O     1.023000000     2.302000000    -4.922000000
H     1.673000000     2.309000000    -4.220000000
H     0.289000000     1.803000000    -4.563000000
O     4.903000000    -1.541000000     6.192000000
H     5.314000000    -2.066000000     5.505000000
H     4.913000000    -2.108000000     6.964000000
O     1.240000000    -4.505000000    -0.509000000
H     0.513000000    -4.579000000     0.109000000
H     1.073000000    -3.687000000    -0.978000000
O     2.749000000     3.349000000    -2.528000000
H     1.989000000     3.609000000    -2.008000000
H     3.265000000     4.151000000    -2.615000000
O     5.922000000     2.945000000     3.916000000
H     5.229000000     2.549000000     4.445000000
H     6.112000000     2.291000000     3.243000000
O     2.237000000    -1.047000000     6.838000000
H     3.089000000    -1.340000000     6.515000000
H     2.390000000    -0.831000000     7.758000000
O    -5.985000000    -3.214000000    -5.296000000
H    -6.474000000    -2.964000000    -6.080000000
H    -5.500000000    -2.425000000    -5.054000000
O    -3.464000000     0.136000000     3.073000000
H    -3.013000000     0.980000000     3.052000000
H    -3.995000000     0.128000000     2.276000000
O    -1.201000000    -4.428000000     0.867000000
H    -1.503000000    -5.283000000     0.559000000
H    -1.691000000    -3.797000000     0.341000000
O    -3.048000000    -3.086000000    -5.693000000
H    -3.531000000    -2.378000000    -5.266000000
H    -2.305000000    -3.251000000    -5.114000000
O    -4.839000000     1.777000000    -4.786000000
H    -5.504000000     2.447000000    -4.626000000
H    -4.642000000     1.855000000    -5.720000000
O     4.764000000     5.635000000    -0.762000000
H     5.460000000     5.088000000    -0.399000000
H     3.991000000     5.070000000    -0.764000000
O    -2.049000000    -1.507000000     4.576000000
H    -2.677000000    -1.052000000     4.015000000
H    -1.355000000    -0.866000000     4.729000000
O    -6.514000000     2.486000000     2.653000000
H    -7.039000000     2.017000000     3.302000000
H    -6.275000000     1.819000000     2.010000000
O    -0.316000000    -3.514000000     3.291000000
H    -0.737000000    -3.986000000     2.573000000
H    -0.976000000    -2.885000000     3.584000000
O     3.121000000     4.174000000     5.202000000
H     2.952000000     3.742000000     4.365000000
H     3.685000000     3.564000000     5.677000000
O     5.507000000    -5.289000000     3.800000000
H     4.746000000    -4.714000000     3.877000000
H     5.292000000    -5.875000000     3.075000000
O     4.367000000    -2.125000000     0.357000000
H     4.498000000    -3.065000000     0.484000000
H     3.648000000    -1.902000000     0.948000000
O     6.745000000     3.533000000    -0.052000000
H     6.385000000     2.787000000     0.428000000
H     7.602000000     3.685000000     0.348000000
O     0.738000000    -2.162000000    -1.849000000
H     1.661000000    -1.956000000    -2.001000000
H     0.345000000    -1.327000000    -1.596000000
O     5.458000000     2.021000000    -2.061000000
H     4.548000000     2.191000000    -1.818000000
H     5.968000000     2.329000000    -1.312000000
O     1.900000000     4.838000000     0.308000000
H     1.082000000     4.448000000    -0.001000000
H     1.628000000     5.640000000     0.755000000
O    -3.088000000    -4.455000000    -2.048000000
H    -3.925000000    -4.025000000    -2.223000000
H    -2.430000000    -3.824000000    -2.339000000
O    -2.626000000     2.518000000     2.589000000
H    -1.690000000     2.315000000     2.605000000
H    -2.815000000     2.703000000     1.670000000
O    -1.483000000     1.172000000    -4.187000000
H    -1.882000000     1.999000000    -4.456000000
H    -2.210000000     0.551000000    -4.164000000
O    -4.177000000     1.656000000    -2.068000000
H    -4.560000000     1.988000000    -2.880000000
H    -4.792000000     0.985000000    -1.770000000
O     3.863000000     1.347000000    -4.855000000
H     3.670000000     1.807000000    -4.038000000
H     3.640000000     1.975000000    -5.542000000
O    -4.460000000    -1.829000000    -1.839000000
H    -4.209000000    -1.577000000    -0.950000000
H    -5.169000000    -2.461000000    -1.718000000
O     7.901000000     0.769000000     3.066000000
H     7.429000000     0.163000000     2.495000000
H     8.143000000     1.498000000     2.495000000
O    -2.586000000     2.867000000    -0.256000000
H    -2.880000000     2.199000000    -0.876000000
H    -1.782000000     3.214000000    -0.643000000
O    -4.670000000    -2.221000000     1.275000000
H    -5.061000000    -3.086000000     1.152000000
H    -4.455000000    -2.186000000     2.207000000
O     0.531000000    -5.000000000     5.882000000
H     0.493000000    -4.588000000     6.745000000
H     0.235000000    -4.318000000     5.278000000
O     0.022000000     2.002000000     2.904000000
H     0.922000000     2.241000000     2.679000000
H     0.103000000     1.157000000     3.345000000
O    -1.025000000    -3.164000000    -3.786000000
H    -0.335000000    -2.706000000    -3.304000000
H    -0.750000000    -4.080000000    -3.784000000
O     3.447000000    -3.087000000     3.510000000
H     2.563000000    -3.338000000     3.781000000
H     3.340000000    -2.220000000     3.120000000
O    -2.589000000     3.622000000    -4.378000000
H    -3.035000000     3.594000000    -5.224000000
H    -3.204000000     3.213000000    -3.769000000
O    -5.773000000     0.506000000     1.112000000
H    -5.830000000     0.550000000     0.157000000
H    -5.441000000    -0.374000000     1.291000000
O     0.431000000    -0.238000000     4.870000000
H     0.836000000    -0.297000000     5.735000000
H     1.052000000    -0.671000000     4.285000000
O    -4.497000000    -5.086000000     1.213000000
H    -3.958000000    -5.451000000     0.511000000
H    -3.895000000    -4.982000000     1.949000000
O    -4.348000000    -0.918000000    -4.589000000
H    -4.567000000     0.012000000    -4.647000000
H    -4.256000000    -1.084000000    -3.651000000
O     1.210000000    -6.237000000     2.835000000
H     0.638000000    -5.739000000     2.251000000
H     0.625000000    -6.856000000     3.273000000
O    -0.492000000     4.521000000    -1.558000000
H    -0.374000000     4.843000000    -2.452000000
H    -0.564000000     5.314000000    -1.026000000
O     5.905000000     1.086000000     0.911000000
H     6.045000000     0.439000000     0.220000000
H     5.004000000     0.939000000     1.198000000
O    -6.669000000     0.691000000    -1.726000000
H    -7.077000000    -0.039000000    -2.191000000
H    -7.403000000     1.236000000    -1.444000000
O    -4.100000000     5.379000000     0.136000000
H    -3.564000000     4.592000000     0.038000000
H    -4.963000000     5.124000000    -0.193000000
O     3.927000000     1.268000000     4.654000000
H     3.347000000     0.639000000     5.085000000
H     3.633000000     1.279000000     3.743000000
O     3.495000000    -1.632000000    -2.089000000
H     3.932000000    -1.672000000    -1.238000000
H     4.191000000    -1.405000000    -2.705000000
