158
-3039.03831
C     1.557000000     0.279000000    -0.029000000
H     2.596000000     0.553000000     0.133000000
C     0.586000000     0.995000000     0.665000000
H     0.913000000     1.840000000     1.265000000
C    -0.776000000     0.643000000     0.674000000
H    -1.497000000     1.229000000     1.183000000
C    -1.175000000    -0.476000000    -0.072000000
H    -2.196000000    -0.848000000    -0.085000000
C    -0.290000000    -1.191000000    -0.857000000
H    -0.651000000    -1.989000000    -1.501000000
C     1.025000000    -0.785000000    -0.818000000
C     1.980000000    -1.662000000    -1.581000000
O     3.189000000    -1.562000000    -1.424000000
O     1.521000000    -2.436000000    -2.433000000
O     1.984000000    -3.671000000     1.342000000
H     1.905000000    -4.517000000     0.901000000
H     2.825000000    -3.324000000     1.046000000
O    -5.812000000     3.183000000     0.985000000
H    -5.954000000     3.213000000     0.039000000
H    -6.686000000     3.283000000     1.362000000
O     1.346000000     1.259000000    -3.902000000
H     1.446000000     1.924000000    -3.220000000
H     0.808000000     1.681000000    -4.572000000
O     3.572000000     3.668000000     5.531000000
H     3.273000000     3.267000000     6.347000000
H     2.882000000     3.467000000     4.898000000
O     6.990000000     1.553000000    -2.454000000
H     6.069000000     1.294000000    -2.407000000
H     7.474000000     0.751000000    -2.257000000
O     3.659000000    -7.017000000    -2.341000000
H     2.790000000    -6.920000000    -1.953000000
H     3.941000000    -6.121000000    -2.524000000
O    -3.538000000     2.143000000     2.150000000
H    -3.652000000     1.193000000     2.108000000
H    -4.398000000     2.497000000     1.926000000
O    -4.352000000     5.561000000     1.141000000
H    -4.893000000     6.134000000     0.598000000
H    -4.691000000     4.681000000     0.973000000
O    -2.934000000     1.109000000     4.711000000
H    -3.117000000     1.377000000     3.810000000
H    -2.720000000     1.924000000     5.164000000
O    -4.937000000     4.640000000     3.616000000
H    -5.508000000     5.366000000     3.871000000
H    -4.452000000     4.971000000     2.861000000
O     4.276000000    -2.808000000     0.631000000
H     4.006000000    -2.337000000    -0.158000000
H     5.230000000    -2.734000000     0.639000000
O     3.590000000     1.593000000    -5.401000000
H     3.909000000     1.374000000    -4.526000000
H     2.687000000     1.879000000    -5.263000000
O     5.343000000    -2.037000000    -3.120000000
H     4.636000000    -1.854000000    -2.501000000
H     5.022000000    -1.702000000    -3.957000000
O     2.703000000    -4.397000000    -4.072000000
H     2.150000000    -4.535000000    -4.841000000
H     2.231000000    -3.746000000    -3.552000000
O    -6.866000000     0.350000000     3.077000000
H    -6.157000000    -0.036000000     2.562000000
H    -7.629000000     0.311000000     2.501000000
O     0.323000000    -1.328000000    -4.645000000
H     1.073000000    -0.737000000    -4.701000000
H     0.447000000    -1.795000000    -3.819000000
O     5.115000000     0.492000000     1.251000000
H     6.058000000     0.324000000     1.246000000
H     4.726000000    -0.318000000     0.919000000
O     0.456000000    -5.529000000    -5.353000000
H    -0.370000000    -5.973000000    -5.158000000
H     1.132000000    -6.145000000    -5.070000000
O    -0.287000000    -4.285000000    -3.013000000
H    -0.156000000    -4.110000000    -3.945000000
H     0.420000000    -3.809000000    -2.578000000
O    -5.719000000     2.315000000     5.138000000
H    -5.919000000     1.808000000     4.351000000
H    -4.903000000     2.769000000     4.929000000
O    -4.203000000     0.922000000    -2.569000000
H    -4.399000000     0.038000000    -2.260000000
H    -4.006000000     1.416000000    -1.774000000
O     2.580000000    -0.708000000     3.936000000
H     1.795000000    -0.173000000     3.818000000
H     2.272000000    -1.487000000     4.397000000
O     0.736000000    -6.340000000    -1.680000000
H    -0.011000000    -6.936000000    -1.611000000
H     0.468000000    -5.696000000    -2.336000000
O     5.273000000    -4.644000000    -2.367000000
H     4.438000000    -4.451000000    -2.794000000
H     5.624000000    -3.787000000    -2.127000000
O    -1.774000000    -3.603000000     3.100000000
H    -1.039000000    -3.187000000     2.648000000
H    -2.080000000    -2.940000000     3.719000000
O     0.438000000     0.976000000     4.194000000
H    -0.192000000     0.590000000     3.585000000
H    -0.029000000     1.011000000     5.030000000
O    -2.323000000    -0.410000000    -4.380000000
H    -2.413000000     0.057000000    -3.550000000
H    -1.389000000    -0.361000000    -4.582000000
O    -3.358000000     2.330000000    -0.449000000
H    -2.688000000     2.891000000    -0.838000000
H    -3.171000000     2.349000000     0.490000000
O    -3.844000000    -2.561000000    -4.251000000
H    -3.233000000    -1.828000000    -4.324000000
H    -3.600000000    -2.996000000    -3.434000000
O     7.905000000    -2.037000000    -2.312000000
H     8.294000000    -2.582000000    -2.997000000
H     7.010000000    -1.878000000    -2.612000000
O    -0.839000000     5.375000000    -0.179000000
H    -1.011000000     5.069000000    -1.070000000
H     0.114000000     5.343000000    -0.095000000
O    -2.409000000    -1.755000000     5.106000000
H    -3.121000000    -1.889000000     5.732000000
H    -2.562000000    -0.878000000     4.754000000
O     4.442000000    -3.397000000     3.564000000
H     4.193000000    -2.894000000     2.789000000
H     5.272000000    -3.010000000     3.844000000
O    -2.814000000    -3.897000000    -1.771000000
H    -2.971000000    -4.512000000    -1.055000000
H    -1.941000000    -4.122000000    -2.093000000
O     5.677000000     4.282000000     0.227000000
H     6.239000000     4.484000000     0.975000000
H     4.840000000     4.032000000     0.617000000
O    -1.707000000     3.356000000     5.526000000
H    -1.143000000     2.766000000     6.027000000
H    -2.246000000     3.790000000     6.187000000
O     1.735000000     3.174000000     3.635000000
H     1.293000000     2.387000000     3.955000000
H     1.062000000     3.854000000     3.660000000
O    -0.476000000    -3.356000000    -6.788000000
H    -0.498000000    -2.919000000    -5.936000000
H    -0.013000000    -4.177000000    -6.625000000
O     4.334000000     1.051000000    -2.587000000
H     3.861000000     0.235000000    -2.429000000
H     3.728000000     1.738000000    -2.307000000
O     2.479000000     3.310000000    -2.385000000
H     2.380000000     3.358000000    -1.434000000
H     2.539000000     4.223000000    -2.665000000
O    -4.393000000    -0.820000000     1.835000000
H    -4.745000000    -0.804000000     0.945000000
H    -4.364000000    -1.749000000     2.064000000
O     3.563000000     2.813000000     1.493000000
H     4.184000000     2.088000000     1.421000000
H     3.139000000     2.681000000     2.341000000
O     0.097000000    -1.859000000     2.239000000
H     0.841000000    -2.423000000     2.027000000
H     0.080000000    -1.211000000     1.536000000
O    -1.917000000     4.212000000    -2.722000000
H    -1.612000000     3.918000000    -3.581000000
H    -2.872000000     4.217000000    -2.797000000
O    -4.334000000    -1.610000000    -1.404000000
H    -3.835000000    -2.393000000    -1.172000000
H    -5.100000000    -1.635000000    -0.831000000
O    -3.925000000    -3.602000000     1.211000000
H    -3.118000000    -3.727000000     1.709000000
H    -4.624000000    -3.795000000     1.836000000
O    -1.104000000     5.553000000     3.506000000
H    -1.450000000     4.837000000     4.040000000
H    -1.438000000     5.378000000     2.626000000
O     1.754000000     4.829000000     0.420000000
H     2.356000000     4.284000000     0.926000000
H     2.312000000     5.497000000     0.023000000
