158
-3060.23199
C     1.319000000     0.394000000     0.581000000
H     2.270000000     0.844000000     0.854000000
C     0.109000000     1.028000000     0.776000000
H     0.109000000     1.900000000     1.426000000
C    -1.028000000     0.558000000     0.176000000
H    -1.967000000     1.064000000     0.328000000
C    -1.042000000    -0.560000000    -0.628000000
H    -2.010000000    -0.844000000    -1.032000000
C     0.174000000    -1.233000000    -0.804000000
H     0.206000000    -2.089000000    -1.475000000
C     1.383000000    -0.736000000    -0.217000000
C     2.639000000    -1.372000000    -0.617000000
O     3.603000000    -1.274000000     0.153000000
O     2.616000000    -2.268000000    -1.438000000
O     4.266000000     3.274000000     3.090000000
H     4.397000000     4.178000000     2.805000000
H     5.007000000     2.796000000     2.718000000
O     6.317000000     2.128000000     1.442000000
H     6.881000000     2.452000000     2.145000000
H     6.901000000     1.611000000     0.887000000
O     8.182000000    -1.303000000    -1.380000000
H     7.368000000    -1.790000000    -1.511000000
H     8.456000000    -1.053000000    -2.263000000
O    -0.377000000    -3.101000000    -3.988000000
H    -0.916000000    -3.282000000    -3.219000000
H    -0.208000000    -3.962000000    -4.371000000
O    -1.715000000     3.140000000     5.605000000
H    -1.867000000     2.220000000     5.390000000
H    -0.836000000     3.156000000     5.983000000
O     2.154000000    -4.612000000    -0.588000000
H     2.694000000    -4.594000000     0.203000000
H     2.289000000    -3.754000000    -0.989000000
O    -6.458000000     3.134000000    -0.886000000
H    -5.789000000     3.793000000    -1.074000000
H    -6.808000000     2.896000000    -1.744000000
O    -3.852000000     5.197000000     1.771000000
H    -3.654000000     5.020000000     2.691000000
H    -3.173000000     4.730000000     1.285000000
O    -1.840000000     0.254000000     6.086000000
H    -2.597000000     0.170000000     5.505000000
H    -1.892000000    -0.512000000     6.658000000
O     5.442000000    -5.822000000    -1.260000000
H     5.991000000    -5.364000000    -1.896000000
H     5.009000000    -5.124000000    -0.769000000
O     5.819000000    -2.365000000    -1.885000000
H     5.145000000    -2.799000000    -1.361000000
H     5.331000000    -1.782000000    -2.467000000
O     5.215000000     0.523000000    -3.434000000
H     4.380000000     0.571000000    -3.900000000
H     5.010000000     0.814000000    -2.545000000
O    -5.306000000    -0.469000000    -2.222000000
H    -4.558000000    -0.947000000    -2.579000000
H    -5.449000000    -0.858000000    -1.359000000
O     2.021000000    -1.844000000    -3.923000000
H     1.091000000    -2.069000000    -3.945000000
H     2.288000000    -2.017000000    -3.020000000
O     4.342000000     1.414000000    -1.013000000
H     3.674000000     1.094000000    -0.407000000
H     5.172000000     1.149000000    -0.616000000
O     4.124000000    -0.359000000     2.496000000
H     5.053000000    -0.532000000     2.647000000
H     4.006000000    -0.492000000     1.555000000
O    -2.399000000    -3.830000000    -2.175000000
H    -2.639000000    -4.655000000    -2.596000000
H    -2.577000000    -3.974000000    -1.246000000
O    -4.419000000     5.131000000    -1.211000000
H    -3.915000000     4.619000000    -1.844000000
H    -3.826000000     5.246000000    -0.469000000
O     6.556000000    -3.489000000     2.309000000
H     6.656000000    -2.583000000     2.601000000
H     6.860000000    -4.014000000     3.049000000
O     2.185000000     5.361000000     4.847000000
H     2.366000000     5.144000000     3.932000000
H     1.732000000     4.591000000     5.190000000
O     2.578000000     0.656000000    -4.679000000
H     2.092000000     0.668000000    -5.504000000
H     2.364000000    -0.191000000    -4.288000000
O     0.798000000    -5.039000000     2.699000000
H     0.793000000    -4.189000000     2.259000000
H     0.969000000    -4.831000000     3.618000000
O    -1.181000000    -1.889000000     2.083000000
H    -1.203000000    -1.128000000     1.503000000
H    -0.583000000    -1.637000000     2.786000000
O     0.124000000    -0.448000000     3.951000000
H     0.584000000     0.344000000     3.670000000
H    -0.220000000    -0.230000000     4.817000000
O    -3.999000000     1.574000000    -3.391000000
H    -3.728000000     1.017000000    -4.121000000
H    -4.595000000     1.025000000    -2.880000000
O    -3.888000000     4.539000000     4.703000000
H    -4.502000000     3.806000000     4.754000000
H    -3.079000000     4.200000000     5.086000000
O    -2.637000000    -0.220000000    -5.314000000
H    -3.318000000    -0.489000000    -5.930000000
H    -1.816000000    -0.424000000    -5.761000000
O    -0.409000000     5.247000000     2.371000000
H     0.322000000     4.631000000     2.316000000
H    -1.109000000     4.834000000     1.866000000
O    -5.524000000     1.687000000     1.601000000
H    -5.524000000     2.372000000     0.933000000
H    -6.368000000     1.248000000     1.495000000
O     2.163000000    -2.389000000     3.576000000
H     1.348000000    -1.887000000     3.574000000
H     2.806000000    -1.803000000     3.177000000
O    -3.907000000    -2.183000000    -3.928000000
H    -3.305000000    -2.625000000    -3.329000000
H    -3.343000000    -1.629000000    -4.468000000
O     1.144000000     2.747000000    -3.178000000
H     1.878000000     2.225000000    -3.501000000
H     0.412000000     2.131000000    -3.136000000
O    -2.627000000    -2.033000000     4.415000000
H    -3.077000000    -1.275000000     4.041000000
H    -1.987000000    -2.284000000     3.749000000
O     4.777000000    -3.750000000     0.421000000
H     4.328000000    -2.909000000     0.329000000
H     5.304000000    -3.655000000     1.214000000
O    -0.868000000     1.119000000    -3.423000000
H    -1.227000000     0.583000000    -4.130000000
H    -1.174000000     0.695000000    -2.621000000
O     1.546000000     4.419000000    -0.980000000
H     0.854000000     5.047000000    -0.772000000
H     1.107000000     3.741000000    -1.492000000
O     2.739000000    -6.839000000    -2.281000000
H     2.448000000    -6.094000000    -1.756000000
H     3.636000000    -7.003000000    -1.990000000
O     3.793000000    -2.288000000    -5.883000000
H     3.349000000    -1.941000000    -6.657000000
H     3.131000000    -2.258000000    -5.193000000
O    -3.535000000     0.271000000     3.419000000
H    -3.719000000     0.399000000     2.488000000
H    -4.200000000     0.793000000     3.868000000
O    -5.352000000    -1.940000000     0.005000000
H    -4.632000000    -2.465000000     0.354000000
H    -6.119000000    -2.225000000     0.501000000
O     3.878000000     3.926000000    -2.459000000
H     3.052000000     4.290000000    -2.142000000
H     4.027000000     3.156000000    -1.911000000
O     1.944000000     3.787000000     1.941000000
H     2.003000000     3.895000000     0.992000000
H     2.849000000     3.658000000     2.224000000
O    -0.106000000    -6.260000000     0.556000000
H    -0.217000000    -6.016000000     1.475000000
H     0.546000000    -5.644000000     0.221000000
O     2.117000000     1.454000000     3.627000000
H     2.704000000     2.205000000     3.543000000
H     2.565000000     0.746000000     3.163000000
O    -1.942000000     4.023000000     0.141000000
H    -2.206000000     3.376000000    -0.513000000
H    -1.485000000     4.698000000    -0.361000000
O    -2.517000000     3.601000000    -2.586000000
H    -2.683000000     2.869000000    -3.181000000
H    -1.965000000     4.199000000    -3.090000000
O    -3.399000000    -3.349000000     0.952000000
H    -2.755000000    -2.832000000     1.436000000
H    -3.413000000    -4.194000000     1.400000000
O     0.979000000     2.874000000     5.918000000
H     1.514000000     2.370000000     6.531000000
H     1.040000000     2.392000000     5.093000000
