158
-3048.17566
C    -0.045000000     1.435000000     0.600000000
H     0.053000000     2.387000000     1.115000000
C    -0.730000000     0.271000000     1.114000000
H    -1.332000000     0.289000000     2.019000000
C    -0.692000000    -0.950000000     0.432000000
H    -1.034000000    -1.861000000     0.925000000
C     0.021000000    -0.985000000    -0.772000000
H     0.203000000    -1.935000000    -1.268000000
C     0.806000000     0.067000000    -1.170000000
H     1.484000000    -0.107000000    -2.001000000
C     0.746000000     1.308000000    -0.543000000
C     1.628000000     2.376000000    -1.131000000
O     1.730000000     3.464000000    -0.543000000
O     2.379000000     2.137000000    -2.037000000
O     2.681000000     7.253000000     1.864000000
H     2.546000000     7.868000000     1.143000000
H     3.181000000     7.749000000     2.512000000
O     4.008000000     0.391000000     2.179000000
H     4.169000000    -0.088000000     1.366000000
H     3.959000000     1.308000000     1.911000000
O     6.807000000     4.978000000    -2.737000000
H     6.119000000     4.316000000    -2.684000000
H     7.029000000     5.168000000    -1.826000000
O    -2.973000000     3.788000000     1.944000000
H    -2.514000000     4.429000000     1.401000000
H    -3.271000000     3.120000000     1.326000000
O     3.568000000    -0.791000000    -0.419000000
H     3.497000000    -1.712000000    -0.671000000
H     2.933000000    -0.341000000    -0.977000000
O     6.706000000     0.615000000    -3.010000000
H     5.771000000     0.684000000    -3.202000000
H     6.743000000     0.277000000    -2.115000000
O     2.672000000    -3.366000000    -0.701000000
H     3.493000000    -3.772000000    -0.980000000
H     2.423000000    -3.846000000     0.088000000
O    -4.255000000    -1.548000000    -1.048000000
H    -4.469000000    -0.875000000    -1.694000000
H    -4.952000000    -2.198000000    -1.141000000
O    -3.030000000    -7.475000000     0.925000000
H    -3.397000000    -6.665000000     1.280000000
H    -3.647000000    -7.737000000     0.242000000
O    -1.016000000    -6.387000000    -0.454000000
H    -1.254000000    -5.503000000    -0.174000000
H    -1.368000000    -6.958000000     0.229000000
O     0.881000000     5.399000000     1.244000000
H     1.688000000     5.877000000     1.434000000
H     1.161000000     4.663000000     0.700000000
O     1.808000000    -0.276000000    -5.745000000
H     1.979000000     0.346000000    -5.038000000
H     1.297000000    -0.973000000    -5.333000000
O    -0.160000000     2.604000000     5.325000000
H     0.664000000     2.306000000     4.940000000
H    -0.124000000     3.558000000     5.260000000
O    -3.262000000     0.076000000    -3.921000000
H    -3.092000000     0.401000000    -3.037000000
H    -2.517000000     0.383000000    -4.437000000
O    -0.525000000    -2.543000000     4.362000000
H    -0.422000000    -2.749000000     5.291000000
H     0.212000000    -1.966000000     4.161000000
O     4.834000000     3.548000000    -4.890000000
H     5.176000000     3.627000000    -5.780000000
H     4.356000000     4.365000000    -4.744000000
O    -3.526000000     2.601000000     4.293000000
H    -3.744000000     2.963000000     3.434000000
H    -2.569000000     2.622000000     4.326000000
O    -1.108000000    -6.352000000     3.232000000
H    -0.975000000    -5.412000000     3.110000000
H    -1.972000000    -6.422000000     3.636000000
O    -5.205000000    -1.881000000     5.294000000
H    -4.554000000    -1.787000000     4.598000000
H    -5.838000000    -1.184000000     5.126000000
O     2.947000000     6.595000000    -1.663000000
H     3.459000000     5.799000000    -1.520000000
H     2.781000000     6.934000000    -0.784000000
O    -2.587000000    -3.700000000    -1.039000000
H    -2.239000000    -3.721000000    -1.930000000
H    -3.032000000    -2.855000000    -0.975000000
O    -1.020000000     3.654000000    -5.221000000
H    -0.712000000     3.877000000    -6.099000000
H    -0.397000000     4.082000000    -4.633000000
O    -0.912000000     0.856000000     7.406000000
H    -0.745000000     1.257000000     6.553000000
H    -1.838000000     0.615000000     7.380000000
O     0.664000000     4.842000000    -3.487000000
H     1.358000000     5.194000000    -4.045000000
H     1.071000000     4.753000000    -2.626000000
O     0.501000000    -1.962000000    -4.009000000
H     0.551000000    -2.894000000    -3.801000000
H    -0.007000000    -1.582000000    -3.293000000
O     0.259000000     5.087000000     3.909000000
H     0.426000000     5.218000000     2.976000000
H     1.129000000     5.064000000     4.307000000
O     1.661000000    -0.972000000     3.096000000
H     2.479000000    -0.803000000     2.630000000
H     0.987000000    -0.936000000     2.417000000
O     2.167000000     1.398000000     4.830000000
H     2.800000000     1.288000000     4.120000000
H     1.944000000     0.505000000     5.092000000
O    -4.389000000     3.114000000    -0.121000000
H    -5.287000000     2.830000000     0.049000000
H    -4.475000000     4.023000000    -0.406000000
O     2.156000000    -4.300000000     1.631000000
H     1.703000000    -3.495000000     1.884000000
H     3.007000000    -4.243000000     2.067000000
O    -4.157000000    -2.747000000    -3.711000000
H    -4.113000000    -3.224000000    -4.540000000
H    -4.082000000    -1.826000000    -3.961000000
O     3.040000000     5.681000000    -4.417000000
H     3.515000000     6.383000000    -4.861000000
H     3.164000000     5.861000000    -3.485000000
O     6.671000000     0.075000000    -0.244000000
H     5.835000000    -0.363000000    -0.083000000
H     6.966000000     0.355000000     0.623000000
O    -0.677000000     1.049000000    -4.223000000
H     0.054000000     1.060000000    -3.605000000
H    -0.912000000     1.970000000    -4.333000000
O    -2.224000000     5.688000000    -2.421000000
H    -1.742000000     4.961000000    -2.817000000
H    -2.622000000     6.143000000    -3.163000000
O    -4.318000000     0.100000000     1.401000000
H    -4.191000000    -0.160000000     0.488000000
H    -3.894000000    -0.592000000     1.908000000
O    -3.123000000    -1.813000000     3.157000000
H    -2.413000000    -1.898000000     3.794000000
H    -3.075000000    -2.614000000     2.635000000
O     1.108000000    -4.194000000    -2.677000000
H     1.721000000    -3.846000000    -2.030000000
H     1.209000000    -5.144000000    -2.616000000
O    -2.857000000     1.438000000    -1.514000000
H    -2.181000000     1.321000000    -0.846000000
H    -3.507000000     2.006000000    -1.101000000
O     4.271000000     1.198000000    -3.680000000
H     4.429000000     2.068000000    -4.045000000
H     3.685000000     1.351000000    -2.939000000
O     4.296000000     3.911000000    -1.849000000
H     3.540000000     3.325000000    -1.862000000
H     4.784000000     3.656000000    -1.066000000
O     5.971000000     3.796000000     0.497000000
H     6.793000000     3.522000000     0.903000000
H     5.315000000     3.684000000     1.186000000
O    -1.621000000     6.026000000     0.399000000
H    -0.709000000     5.826000000     0.610000000
H    -1.641000000     6.068000000    -0.557000000
O    -3.681000000    -4.442000000     1.580000000
H    -4.557000000    -4.081000000     1.446000000
H    -3.296000000    -4.468000000     0.704000000
O    -5.575000000     1.168000000     3.344000000
H    -4.832000000     1.635000000     3.726000000
H    -5.229000000     0.783000000     2.539000000
O     3.478000000    -3.474000000    -4.685000000
H     3.046000000    -3.264000000    -5.514000000
H     2.830000000    -3.255000000    -4.016000000
O     3.320000000     3.101000000     1.574000000
H     2.882000000     3.425000000     0.786000000
H     3.291000000     3.839000000     2.184000000
O    -6.348000000    -3.629000000     1.422000000
H    -6.781000000    -3.773000000     2.264000000
H    -6.948000000    -3.060000000     0.939000000
