158
-3012.09240
C     0.812000000     1.254000000     0.261000000
H     1.412000000     2.129000000     0.497000000
C    -0.506000000     0.992000000     0.719000000
H    -0.982000000     1.683000000     1.410000000
C    -1.191000000    -0.151000000     0.275000000
H    -2.182000000    -0.274000000     0.607000000
C    -0.576000000    -1.139000000    -0.471000000
H    -1.076000000    -2.093000000    -0.614000000
C     0.742000000    -0.875000000    -0.871000000
H     1.244000000    -1.733000000    -1.313000000
C     1.436000000     0.281000000    -0.506000000
C     2.898000000     0.370000000    -0.903000000
O     3.674000000     1.085000000    -0.291000000
O     3.445000000    -0.359000000    -1.706000000
O     4.336000000     0.055000000     4.171000000
H     4.064000000     0.639000000     3.463000000
H     5.271000000     0.229000000     4.279000000
O    -6.744000000    -4.403000000    -0.915000000
H    -6.351000000    -3.659000000    -0.459000000
H    -6.486000000    -5.165000000    -0.396000000
O     5.494000000     1.429000000    -2.465000000
H     6.206000000     1.080000000    -1.929000000
H     4.698000000     1.086000000    -2.059000000
O     6.654000000     0.607000000    -4.853000000
H     6.257000000     0.815000000    -4.007000000
H     6.186000000     1.161000000    -5.478000000
O    -3.798000000     5.843000000     0.662000000
H    -4.017000000     5.278000000    -0.079000000
H    -3.587000000     5.236000000     1.371000000
O    -3.548000000    -4.394000000    -2.617000000
H    -3.168000000    -4.663000000    -1.780000000
H    -4.049000000    -5.155000000    -2.908000000
O    -1.019000000     1.295000000    -2.384000000
H    -0.951000000     0.843000000    -1.543000000
H    -1.882000000     1.051000000    -2.718000000
O    -6.036000000     2.107000000     5.012000000
H    -5.518000000     1.448000000     4.550000000
H    -6.657000000     2.425000000     4.357000000
O     4.219000000    -3.867000000     1.395000000
H     4.724000000    -3.054000000     1.372000000
H     4.744000000    -4.460000000     1.931000000
O    -6.200000000     2.862000000    -1.132000000
H    -5.634000000     2.581000000    -1.851000000
H    -6.150000000     2.148000000    -0.496000000
O    -3.811000000    -2.126000000     2.384000000
H    -4.318000000    -2.932000000     2.286000000
H    -2.903000000    -2.420000000     2.446000000
O     0.382000000     0.899000000     6.197000000
H     0.566000000     1.825000000     6.356000000
H     0.658000000     0.752000000     5.293000000
O     6.795000000    -3.011000000    -4.023000000
H     7.460000000    -2.611000000    -4.583000000
H     6.641000000    -2.364000000    -3.334000000
O     1.594000000    -5.157000000    -2.966000000
H     1.094000000    -5.506000000    -2.227000000
H     2.101000000    -4.436000000    -2.593000000
O     3.642000000     1.863000000     2.104000000
H     3.387000000     2.766000000     1.915000000
H     3.614000000     1.424000000     1.253000000
O    -4.518000000     0.305000000     3.276000000
H    -4.931000000     0.524000000     2.441000000
H    -4.253000000    -0.610000000     3.180000000
O     3.703000000    -2.367000000    -5.909000000
H     3.654000000    -1.603000000    -5.334000000
H     2.949000000    -2.902000000    -5.661000000
O     6.198000000     3.697000000    -4.256000000
H     6.795000000     4.172000000    -3.678000000
H     5.656000000     3.176000000    -3.664000000
O     5.228000000    -1.434000000     1.213000000
H     4.822000000    -0.588000000     1.023000000
H     5.820000000    -1.257000000     1.944000000
O    -2.261000000    -2.089000000    -3.749000000
H    -2.768000000    -1.463000000    -3.232000000
H    -2.700000000    -2.928000000    -3.607000000
O     3.818000000    -3.658000000    -1.428000000
H     3.843000000    -3.616000000    -0.472000000
H     4.225000000    -2.840000000    -1.714000000
O     2.629000000     1.940000000    -6.155000000
H     2.810000000     1.580000000    -5.287000000
H     2.966000000     1.281000000    -6.762000000
O     3.843000000     3.795000000    -0.889000000
H     3.994000000     3.843000000    -1.833000000
H     3.758000000     2.860000000    -0.706000000
O     0.169000000    -6.208000000    -0.883000000
H     0.072000000    -6.811000000    -0.146000000
H    -0.379000000    -5.458000000    -0.652000000
O    -1.374000000     2.997000000     3.444000000
H    -0.999000000     3.835000000     3.713000000
H    -0.714000000     2.613000000     2.866000000
O     0.433000000    -1.346000000    -4.168000000
H     0.750000000    -2.191000000    -4.487000000
H    -0.436000000    -1.534000000    -3.813000000
O     1.350000000    -4.283000000     1.811000000
H     2.303000000    -4.267000000     1.728000000
H     1.181000000    -4.899000000     2.523000000
O     1.312000000    -1.295000000     2.257000000
H     1.402000000    -2.247000000     2.285000000
H     0.955000000    -1.114000000     1.387000000
O    -4.979000000    -1.834000000    -2.341000000
H    -5.458000000    -2.099000000    -3.126000000
H    -4.371000000    -2.555000000    -2.177000000
O    -3.791000000     3.749000000     2.462000000
H    -4.220000000     2.918000000     2.257000000
H    -3.029000000     3.503000000     2.987000000
O     7.375000000    -0.075000000    -0.607000000
H     6.997000000     0.166000000     0.239000000
H     8.319000000    -0.090000000    -0.452000000
O     1.195000000     0.800000000     3.690000000
H     1.991000000     1.232000000     3.380000000
H     1.043000000     0.096000000     3.060000000
O    -3.677000000     0.857000000    -2.949000000
H    -4.300000000     0.351000000    -2.428000000
H    -4.215000000     1.290000000    -3.611000000
O     1.057000000     3.375000000    -2.880000000
H     0.556000000     3.247000000    -2.074000000
H     0.820000000     2.628000000    -3.430000000
O    -2.520000000     1.188000000     5.339000000
H    -3.035000000     0.707000000     4.691000000
H    -1.761000000     1.507000000     4.851000000
O     5.590000000    -1.666000000    -1.829000000
H     4.868000000    -1.038000000    -1.859000000
H     6.285000000    -1.208000000    -1.356000000
O    -6.178000000    -0.356000000    -0.312000000
H    -6.628000000    -0.968000000     0.269000000
H    -5.591000000    -0.906000000    -0.832000000
O     6.619000000     4.088000000     0.256000000
H     5.747000000     4.191000000    -0.124000000
H     6.640000000     3.182000000     0.565000000
O    -1.540000000    -2.290000000     5.064000000
H    -0.821000000    -2.296000000     5.696000000
H    -1.495000000    -1.425000000     4.657000000
O     1.262000000    -3.548000000    -5.452000000
H     1.048000000    -3.493000000    -6.384000000
H     1.318000000    -4.487000000    -5.275000000
O     2.847000000    -0.353000000    -4.351000000
H     1.903000000    -0.420000000    -4.208000000
H     3.237000000    -0.693000000    -3.545000000
O    -3.714000000    -3.895000000     5.141000000
H    -2.929000000    -3.357000000     5.040000000
H    -4.296000000    -3.368000000     5.689000000
O    -6.143000000     1.722000000     1.286000000
H    -7.015000000     2.106000000     1.190000000
H    -6.191000000     0.895000000     0.806000000
O    -1.486000000    -4.048000000     2.196000000
H    -0.603000000    -3.679000000     2.181000000
H    -1.504000000    -4.593000000     2.983000000
O     2.793000000     4.544000000     1.486000000
H     3.437000000     4.820000000     0.834000000
H     2.134000000     5.239000000     1.481000000
O     6.368000000     1.339000000     1.626000000
H     5.601000000     1.802000000     1.964000000
H     6.908000000     1.175000000     2.399000000
O    -3.087000000     4.157000000    -3.090000000
H    -2.672000000     3.295000000    -3.061000000
H    -3.954000000     3.993000000    -3.459000000
O    -2.682000000    -4.971000000    -0.082000000
H    -3.543000000    -5.038000000     0.332000000
H    -2.137000000    -4.529000000     0.569000000
