158
-2995.74912
C     0.308000000     1.482000000     0.390000000
H     0.511000000     2.463000000     0.812000000
C    -0.607000000     0.591000000     1.055000000
H    -1.140000000     0.834000000     1.970000000
C    -0.847000000    -0.683000000     0.537000000
H    -1.503000000    -1.362000000     1.133000000
C    -0.133000000    -1.184000000    -0.523000000
H    -0.175000000    -2.228000000    -0.820000000
C     0.683000000    -0.328000000    -1.230000000
H     1.186000000    -0.829000000    -2.053000000
C     0.967000000     0.966000000    -0.772000000
C     1.970000000     1.815000000    -1.516000000
O     2.205000000     2.926000000    -1.157000000
O     2.752000000     1.331000000    -2.327000000
O     5.004000000     0.132000000    -1.820000000
H     4.859000000    -0.214000000    -0.940000000
H     4.149000000     0.469000000    -2.088000000
O     6.200000000     0.582000000    -4.237000000
H     5.698000000     0.223000000    -3.505000000
H     5.837000000     1.457000000    -4.371000000
O    -3.410000000    -3.704000000    -3.761000000
H    -3.344000000    -3.229000000    -2.932000000
H    -4.087000000    -4.362000000    -3.606000000
O    -1.808000000     2.691000000    -3.516000000
H    -1.130000000     3.230000000    -3.108000000
H    -2.470000000     2.582000000    -2.833000000
O    -4.682000000     1.384000000    -1.692000000
H    -5.626000000     1.435000000    -1.546000000
H    -4.583000000     0.751000000    -2.403000000
O    -3.232000000    -1.229000000     3.588000000
H    -3.057000000    -2.034000000     3.101000000
H    -2.623000000    -1.259000000     4.327000000
O     1.129000000     1.541000000     6.408000000
H     0.586000000     2.068000000     6.994000000
H     0.581000000     1.399000000     5.636000000
O    -6.785000000     1.981000000     1.960000000
H    -7.314000000     1.440000000     2.546000000
H    -6.013000000     1.447000000     1.772000000
O     1.926000000    -5.307000000     3.101000000
H     1.247000000    -4.775000000     2.687000000
H     2.600000000    -5.402000000     2.428000000
O     0.680000000    -5.622000000    -0.403000000
H     0.600000000    -6.489000000    -0.800000000
H     0.260000000    -5.032000000    -1.029000000
O     3.801000000     3.050000000     1.157000000
H     4.284000000     3.804000000     0.818000000
H     3.128000000     2.881000000     0.498000000
O    -4.415000000     0.247000000     1.381000000
H    -4.714000000    -0.335000000     0.682000000
H    -4.086000000    -0.342000000     2.059000000
O    -0.030000000    -4.266000000     6.151000000
H    -0.857000000    -3.958000000     6.523000000
H    -0.228000000    -5.142000000     5.820000000
O    -4.963000000    -3.643000000     0.911000000
H    -4.122000000    -3.570000000     1.361000000
H    -5.574000000    -3.928000000     1.591000000
O     4.982000000     0.993000000    -6.998000000
H     4.354000000     0.860000000    -6.288000000
H     4.482000000     1.445000000    -7.678000000
O     5.522000000     3.266000000    -4.324000000
H     6.317000000     3.797000000    -4.279000000
H     4.899000000     3.719000000    -3.755000000
O     2.335000000     0.832000000     2.593000000
H     2.500000000     0.115000000     1.980000000
H     3.069000000     1.433000000     2.462000000
O    -1.646000000     0.512000000    -5.297000000
H    -0.879000000    -0.035000000    -5.126000000
H    -1.537000000     1.266000000    -4.718000000
O     3.328000000    -3.066000000     1.836000000
H     4.090000000    -3.036000000     2.415000000
H     3.282000000    -2.188000000     1.456000000
O     4.399000000     4.129000000    -1.808000000
H     3.574000000     3.721000000    -1.546000000
H     4.463000000     4.913000000    -1.262000000
O    -0.500000000    -4.320000000    -2.445000000
H    -0.573000000    -3.527000000    -2.977000000
H    -1.338000000    -4.377000000    -1.986000000
O     1.756000000     3.846000000    -3.806000000
H     2.187000000     3.501000000    -4.588000000
H     1.910000000     3.181000000    -3.135000000
O    -0.261000000     3.861000000     3.650000000
H     0.633000000     4.205000000     3.665000000
H    -0.164000000     2.934000000     3.866000000
O     0.059000000    -4.103000000     1.755000000
H     0.012000000    -4.849000000     1.158000000
H     0.894000000    -3.682000000     1.548000000
O    -0.680000000    -1.472000000     4.789000000
H     0.243000000    -1.396000000     5.032000000
H    -0.913000000    -2.374000000     5.013000000
O     2.161000000     6.826000000    -0.075000000
H     1.380000000     6.276000000    -0.129000000
H     1.856000000     7.636000000     0.335000000
O     1.833000000     1.494000000    -6.897000000
H     1.960000000     0.871000000    -7.613000000
H     1.942000000     0.971000000    -6.103000000
O    -3.418000000    -6.664000000     1.984000000
H    -4.226000000    -7.173000000     2.050000000
H    -3.255000000    -6.356000000     2.876000000
O    -2.819000000     2.561000000     0.189000000
H    -3.582000000     2.118000000    -0.180000000
H    -2.226000000     1.851000000     0.437000000
O     0.102000000     1.170000000     4.107000000
H     0.646000000     0.879000000     3.375000000
H    -0.438000000     0.409000000     4.322000000
O     0.581000000     5.022000000    -1.479000000
H     1.241000000     4.340000000    -1.352000000
H     0.929000000     5.563000000    -2.187000000
O    -2.869000000     3.195000000     3.044000000
H    -2.849000000     3.288000000     2.091000000
H    -1.974000000     3.389000000     3.322000000
O     4.857000000    -0.804000000     0.900000000
H     5.474000000    -1.470000000     1.201000000
H     5.186000000     0.014000000     1.273000000
O    -1.948000000    -7.323000000    -0.391000000
H    -1.161000000    -7.863000000    -0.325000000
H    -2.100000000    -7.010000000     0.501000000
O     3.189000000     6.667000000    -3.885000000
H     3.978000000     6.558000000    -4.415000000
H     2.988000000     5.786000000    -3.569000000
O     6.628000000     2.578000000    -1.331000000
H     6.103000000     1.793000000    -1.485000000
H     6.183000000     3.266000000    -1.827000000
O    -4.607000000     0.889000000     4.343000000
H    -4.242000000     0.042000000     4.086000000
H    -4.007000000     1.532000000     3.966000000
O     2.958000000     0.228000000    -4.898000000
H     2.812000000    -0.588000000    -4.419000000
H     2.795000000     0.917000000    -4.254000000
O    -3.325000000    -5.342000000     4.528000000
H    -3.528000000    -4.686000000     5.195000000
H    -2.603000000    -5.848000000     4.902000000
O    -2.669000000    -3.505000000     2.255000000
H    -1.743000000    -3.364000000     2.058000000
H    -2.674000000    -4.239000000     2.869000000
O     4.522000000     5.713000000     0.386000000
H     4.968000000     6.222000000     1.063000000
H     3.677000000     6.150000000     0.275000000
O     5.786000000     1.480000000     1.895000000
H     6.233000000     2.147000000     2.415000000
H     5.122000000     1.964000000     1.404000000
O    -1.761000000     6.331000000    -1.290000000
H    -0.902000000     5.912000000    -1.238000000
H    -1.602000000     7.142000000    -1.773000000
O    -2.783000000    -2.916000000    -0.886000000
H    -2.229000000    -2.279000000    -0.436000000
H    -3.603000000    -2.912000000    -0.392000000
O    -3.400000000     5.322000000     0.592000000
H    -3.110000000     4.415000000     0.498000000
H    -2.674000000     5.842000000     0.247000000
O     2.301000000    -2.282000000    -4.104000000
H     2.082000000    -2.660000000    -4.956000000
H     2.051000000    -2.956000000    -3.472000000
O     2.388000000     4.659000000     3.189000000
H     2.729000000     4.057000000     2.527000000
H     3.152000000     4.894000000     3.715000000
O    -0.588000000    -2.362000000    -6.170000000
H    -1.226000000    -3.012000000    -6.466000000
H     0.155000000    -2.880000000    -5.862000000
