158
-3055.85432
C     0.582000000    -0.757000000     1.107000000
H     1.002000000    -1.372000000     1.898000000
C    -0.631000000    -1.051000000     0.507000000
H    -1.195000000    -1.920000000     0.836000000
C    -1.094000000    -0.277000000    -0.559000000
H    -2.090000000    -0.556000000    -0.921000000
C    -0.360000000     0.819000000    -1.011000000
H    -0.824000000     1.408000000    -1.798000000
C     0.853000000     1.132000000    -0.394000000
H     1.436000000     2.009000000    -0.663000000
C     1.350000000     0.342000000     0.678000000
C     2.654000000     0.653000000     1.377000000
O     2.899000000     0.173000000     2.439000000
O     3.334000000     1.671000000     1.077000000
O    -0.824000000    -1.432000000    -3.562000000
H    -1.677000000    -1.242000000    -3.172000000
H    -1.021000000    -2.004000000    -4.304000000
O    -1.939000000    -3.319000000    -5.117000000
H    -2.059000000    -3.851000000    -4.330000000
H    -1.281000000    -3.791000000    -5.627000000
O    -4.620000000     3.112000000     2.989000000
H    -3.961000000     3.806000000     2.983000000
H    -4.187000000     2.367000000     2.573000000
O    -3.343000000     1.983000000    -2.573000000
H    -3.737000000     2.278000000    -3.394000000
H    -3.069000000     2.789000000    -2.136000000
O    -0.099000000     1.069000000    -4.762000000
H    -0.386000000     0.195000000    -4.496000000
H     0.670000000     1.244000000    -4.218000000
O     7.415000000     2.126000000     3.700000000
H     7.566000000     1.222000000     3.975000000
H     6.470000000     2.178000000     3.556000000
O     4.660000000     5.200000000     4.353000000
H     3.926000000     5.789000000     4.179000000
H     4.619000000     4.552000000     3.650000000
O    -5.575000000    -3.734000000    -3.181000000
H    -6.131000000    -3.186000000    -3.735000000
H    -5.181000000    -3.124000000    -2.558000000
O     3.118000000     6.344000000     1.698000000
H     2.895000000     5.452000000     1.964000000
H     3.958000000     6.257000000     1.247000000
O    -1.646000000     0.531000000     3.248000000
H    -0.768000000     0.510000000     3.629000000
H    -1.731000000     1.415000000     2.890000000
O    -3.915000000    -0.015000000     2.063000000
H    -3.982000000     0.350000000     1.181000000
H    -2.975000000    -0.027000000     2.246000000
O    -2.841000000     2.547000000    -5.175000000
H    -2.725000000     2.947000000    -6.037000000
H    -2.110000000     1.934000000    -5.096000000
O     1.164000000     1.029000000     4.254000000
H     1.783000000     0.881000000     3.539000000
H     1.108000000     1.981000000     4.330000000
O     1.875000000    -0.738000000    -3.046000000
H     2.438000000    -1.127000000    -3.716000000
H     0.988000000    -0.834000000    -3.393000000
O    -2.917000000    -5.199000000    -3.414000000
H    -3.855000000    -5.017000000    -3.358000000
H    -2.842000000    -5.872000000    -4.090000000
O     5.505000000    -0.438000000     2.018000000
H     5.325000000    -0.948000000     1.229000000
H     4.655000000    -0.355000000     2.449000000
O    -3.534000000    -0.736000000    -3.042000000
H    -3.375000000     0.199000000    -2.914000000
H    -4.487000000    -0.813000000    -3.086000000
O     4.094000000    -1.157000000    -1.544000000
H     3.219000000    -0.874000000    -1.809000000
H     3.966000000    -2.040000000    -1.198000000
O    -0.908000000    -6.147000000     2.472000000
H    -0.387000000    -5.660000000     1.833000000
H    -1.715000000    -6.366000000     2.006000000
O     6.665000000     1.980000000    -2.673000000
H     6.122000000     2.030000000    -1.887000000
H     6.089000000     1.608000000    -3.341000000
O     3.476000000     1.741000000     5.813000000
H     2.934000000     1.065000000     5.406000000
H     3.051000000     1.914000000     6.653000000
O    -0.722000000    -1.775000000     6.518000000
H    -0.164000000    -1.823000000     5.741000000
H    -0.113000000    -1.834000000     7.254000000
O     1.092000000    -2.901000000    -1.439000000
H     0.152000000    -3.016000000    -1.579000000
H     1.244000000    -1.969000000    -1.592000000
O    -3.888000000    -5.022000000     1.583000000
H    -3.130000000    -4.443000000     1.508000000
H    -4.383000000    -4.875000000     0.777000000
O    -0.612000000    -5.924000000    -0.155000000
H    -0.096000000    -6.580000000    -0.623000000
H    -0.750000000    -5.226000000    -0.796000000
O     3.076000000     1.968000000    -3.371000000
H     2.936000000     2.597000000    -2.663000000
H     2.616000000     1.179000000    -3.085000000
O    -6.387000000    -0.062000000    -2.343000000
H    -6.540000000     0.430000000    -3.150000000
H    -6.672000000     0.528000000    -1.645000000
O    -0.133000000     4.584000000     0.126000000
H     0.536000000     4.515000000    -0.555000000
H     0.361000000     4.622000000     0.945000000
O     5.649000000     1.902000000    -0.080000000
H     4.912000000     2.026000000     0.517000000
H     6.196000000     1.244000000     0.348000000
O     1.753000000     5.554000000    -1.962000000
H     1.435000000     4.925000000    -2.609000000
H     2.610000000     5.217000000    -1.701000000
O     4.774000000     2.349000000     3.363000000
H     4.252000000     1.817000000     2.762000000
H     4.449000000     2.116000000     4.232000000
O     3.664000000     4.057000000    -0.824000000
H     4.614000000     4.172000000    -0.792000000
H     3.459000000     3.545000000    -0.041000000
O     6.929000000    -0.257000000     4.837000000
H     7.494000000    -0.914000000     5.246000000
H     6.374000000    -0.757000000     4.239000000
O     7.271000000     4.321000000    -0.270000000
H     7.868000000     4.276000000     0.476000000
H     6.794000000     3.491000000    -0.247000000
O     1.359000000    -4.041000000     1.335000000
H     0.999000000    -3.629000000     0.550000000
H     1.190000000    -3.411000000     2.035000000
O     4.585000000    -3.303000000     2.942000000
H     4.075000000    -2.755000000     3.538000000
H     4.457000000    -2.904000000     2.081000000
O     1.980000000     3.888000000     2.291000000
H     2.538000000     3.120000000     2.171000000
H     1.688000000     3.832000000     3.201000000
O    -2.524000000     4.031000000    -1.288000000
H    -1.878000000     4.599000000    -0.867000000
H    -3.368000000     4.436000000    -1.084000000
O    -2.116000000    -2.025000000     3.907000000
H    -3.019000000    -2.314000000     3.776000000
H    -2.163000000    -1.069000000     3.868000000
O    -5.857000000    -2.100000000     1.645000000
H    -5.811000000    -2.363000000     2.564000000
H    -5.517000000    -1.205000000     1.635000000
O    -1.903000000     2.765000000     1.457000000
H    -2.625000000     2.694000000     0.832000000
H    -1.170000000     3.096000000     0.938000000
O    -5.200000000    -2.260000000    -1.067000000
H    -5.568000000    -2.273000000    -0.184000000
H    -5.623000000    -1.513000000    -1.492000000
O     3.111000000    -1.670000000     4.301000000
H     3.119000000    -1.357000000     5.206000000
H     2.722000000    -0.952000000     3.803000000
O     4.025000000    -3.559000000     0.027000000
H     4.775000000    -4.149000000    -0.048000000
H     3.354000000    -4.078000000     0.469000000
O     0.558000000     3.724000000    -3.681000000
H    -0.209000000     3.243000000    -3.994000000
H     0.943000000     4.101000000    -4.472000000
O    -0.008000000    -3.729000000     4.040000000
H    -0.366000000    -4.551000000     3.706000000
H    -0.700000000    -3.086000000     3.886000000
O    -1.929000000    -3.591000000    -1.553000000
H    -2.136000000    -4.280000000    -2.185000000
H    -2.731000000    -3.074000000    -1.491000000
O    -4.328000000     1.508000000     0.005000000
H    -3.992000000     1.654000000    -0.879000000
H    -5.279000000     1.474000000    -0.104000000
