158
-3035.42301
C    -0.454000000     1.407000000     0.430000000
H    -1.060000000     2.305000000     0.515000000
C    -1.085000000     0.218000000     0.742000000
H    -2.071000000     0.158000000     1.197000000
C    -0.501000000    -1.013000000     0.452000000
H    -0.915000000    -1.903000000     0.835000000
C     0.746000000    -1.049000000    -0.120000000
H     1.207000000    -2.024000000    -0.252000000
C     1.354000000     0.140000000    -0.542000000
H     2.283000000    -0.004000000    -1.088000000
C     0.792000000     1.389000000    -0.278000000
C     1.442000000     2.576000000    -0.939000000
O     0.793000000     3.581000000    -1.268000000
O     2.645000000     2.570000000    -1.209000000
O     0.303000000     5.638000000     2.604000000
H     0.159000000     5.460000000     1.675000000
H     0.548000000     4.790000000     2.975000000
O     3.943000000     0.407000000     1.287000000
H     3.430000000     0.958000000     0.697000000
H     4.814000000     0.804000000     1.290000000
O    -2.567000000     3.855000000     2.239000000
H    -2.725000000     4.634000000     2.773000000
H    -3.072000000     4.007000000     1.440000000
O     1.452000000    -0.281000000     3.072000000
H     0.877000000    -0.223000000     2.309000000
H     2.300000000     0.033000000     2.757000000
O     6.606000000    -0.389000000    -0.678000000
H     6.141000000     0.362000000    -1.047000000
H     5.925000000    -1.047000000    -0.537000000
O     4.250000000     0.148000000    -4.184000000
H     4.648000000     0.597000000    -3.438000000
H     4.858000000     0.300000000    -4.907000000
O     4.691000000    -1.859000000     2.961000000
H     4.575000000    -1.418000000     2.120000000
H     4.132000000    -2.634000000     2.904000000
O    -2.775000000     0.856000000    -2.163000000
H    -3.125000000     0.985000000    -3.044000000
H    -2.177000000     1.592000000    -2.033000000
O     2.601000000    -4.324000000    -1.017000000
H     2.659000000    -4.972000000    -1.720000000
H     3.105000000    -4.705000000    -0.298000000
O     4.105000000    -4.155000000     1.491000000
H     4.975000000    -4.386000000     1.815000000
H     3.561000000    -4.914000000     1.701000000
O    -3.713000000    -4.749000000     1.016000000
H    -3.833000000    -3.846000000     1.309000000
H    -3.610000000    -5.251000000     1.824000000
O     3.327000000     5.606000000     1.441000000
H     2.459000000     5.843000000     1.769000000
H     3.544000000     4.796000000     1.902000000
O     4.746000000    -2.480000000    -1.059000000
H     4.298000000    -2.617000000    -0.224000000
H     4.522000000    -3.251000000    -1.580000000
O    -4.776000000    -6.349000000    -0.915000000
H    -4.539000000    -5.649000000    -0.306000000
H    -4.156000000    -7.053000000    -0.723000000
O     7.382000000     3.816000000    -0.562000000
H     6.606000000     4.311000000    -0.825000000
H     7.869000000     3.686000000    -1.376000000
O     2.760000000    -4.571000000     4.592000000
H     2.044000000    -4.447000000     3.970000000
H     2.337000000    -4.907000000     5.382000000
O     0.349000000    -1.429000000     5.315000000
H     1.174000000    -1.818000000     5.603000000
H     0.586000000    -0.897000000     4.556000000
O    -5.022000000    -3.437000000     4.184000000
H    -4.789000000    -2.836000000     3.475000000
H    -5.604000000    -4.076000000     3.774000000
O    -3.692000000     1.139000000     3.311000000
H    -3.965000000     1.697000000     4.039000000
H    -3.275000000     1.740000000     2.692000000
O    -1.352000000    -4.745000000     5.152000000
H    -0.613000000    -4.416000000     4.640000000
H    -1.264000000    -5.698000000     5.114000000
O    -4.009000000    -1.959000000     2.195000000
H    -3.903000000    -1.428000000     1.406000000
H    -3.321000000    -1.650000000     2.785000000
O    -6.307000000     1.657000000     1.999000000
H    -5.556000000     1.783000000     2.579000000
H    -6.614000000     0.772000000     2.195000000
O     0.028000000    -5.346000000    -1.396000000
H     0.835000000    -4.838000000    -1.309000000
H    -0.160000000    -5.650000000    -0.508000000
O     0.488000000     3.303000000    -4.017000000
H     0.723000000     3.341000000    -3.090000000
H     1.013000000     3.992000000    -4.425000000
O     1.660000000     5.777000000    -4.281000000
H     2.563000000     5.596000000    -4.540000000
H     1.729000000     6.505000000    -3.664000000
O    -4.737000000     2.662000000    -1.772000000
H    -4.152000000     1.906000000    -1.818000000
H    -5.028000000     2.686000000    -0.860000000
O     4.493000000     4.404000000    -1.733000000
H     4.380000000     5.290000000    -2.077000000
H     3.603000000     4.063000000    -1.651000000
O    -1.996000000    -3.682000000    -4.900000000
H    -1.811000000    -4.598000000    -5.106000000
H    -2.461000000    -3.713000000    -4.064000000
O    -2.293000000    -1.443000000     4.098000000
H    -2.598000000    -0.585000000     4.394000000
H    -1.604000000    -1.680000000     4.718000000
O     0.488000000    -3.776000000     3.212000000
H     0.629000000    -2.845000000     3.039000000
H     0.073000000    -4.107000000     2.415000000
O    -4.437000000     4.741000000     0.568000000
H    -5.388000000     4.757000000     0.672000000
H    -4.232000000     5.558000000     0.114000000
O    -1.563000000     7.825000000    -1.470000000
H    -0.988000000     7.538000000    -2.180000000
H    -1.084000000     7.606000000    -0.671000000
O    -2.359000000    -4.190000000    -2.432000000
H    -1.884000000    -4.803000000    -1.870000000
H    -1.862000000    -3.374000000    -2.369000000
O     4.008000000     4.764000000    -5.239000000
H     4.905000000     4.565000000    -5.510000000
H     3.949000000     4.429000000    -4.344000000
O    -2.177000000     3.682000000    -4.879000000
H    -2.497000000     2.780000000    -4.869000000
H    -1.290000000     3.626000000    -4.523000000
O    -6.060000000     0.199000000     4.878000000
H    -6.769000000     0.032000000     4.257000000
H    -5.279000000     0.284000000     4.332000000
O     0.397000000     5.885000000    -0.386000000
H     0.632000000     5.010000000    -0.693000000
H     1.235000000     6.302000000    -0.185000000
O    -4.005000000    -0.621000000    -0.425000000
H    -3.654000000    -0.061000000    -1.117000000
H    -4.450000000    -1.329000000    -0.891000000
O    -1.346000000    -1.507000000    -2.470000000
H    -0.468000000    -1.308000000    -2.144000000
H    -1.906000000    -0.842000000    -2.072000000
O     2.480000000    -1.980000000    -3.002000000
H     2.943000000    -1.156000000    -3.154000000
H     2.894000000    -2.348000000    -2.222000000
O    -1.940000000     3.760000000    -1.748000000
H    -1.012000000     3.879000000    -1.550000000
H    -2.326000000     4.626000000    -1.618000000
O     4.871000000     1.508000000    -1.923000000
H     5.311000000     2.358000000    -1.928000000
H     3.956000000     1.713000000    -1.733000000
O     6.152000000     2.420000000     1.709000000
H     5.474000000     2.933000000     2.149000000
H     6.490000000     3.002000000     1.029000000
O    -0.370000000     2.964000000     3.551000000
H    -0.267000000     2.012000000     3.557000000
H    -1.083000000     3.123000000     2.932000000
O    -0.948000000    -4.866000000     1.083000000
H    -1.645000000    -4.626000000     0.473000000
H    -1.408000000    -5.221000000     1.844000000
O    -6.701000000    -1.192000000     2.250000000
H    -5.858000000    -1.607000000     2.433000000
H    -6.951000000    -1.525000000     1.388000000
O     0.936000000    -3.273000000    -5.166000000
H     0.010000000    -3.319000000    -4.927000000
H     1.318000000    -2.671000000    -4.528000000
O    -4.641000000    -2.486000000    -2.161000000
H    -5.468000000    -2.965000000    -2.116000000
H    -3.973000000    -3.168000000    -2.226000000
