158
-3040.20780
C     0.337000000     0.047000000     1.427000000
H     0.770000000    -0.168000000     2.401000000
C    -0.478000000    -0.911000000     0.827000000
H    -0.836000000    -1.788000000     1.360000000
C    -0.806000000    -0.775000000    -0.565000000
H    -1.522000000    -1.407000000    -0.995000000
C    -0.161000000     0.178000000    -1.296000000
H    -0.431000000     0.301000000    -2.341000000
C     0.666000000     1.144000000    -0.640000000
H     1.029000000     2.005000000    -1.196000000
C     0.996000000     1.046000000     0.711000000
C     1.965000000     2.006000000     1.325000000
O     2.452000000     1.674000000     2.382000000
O     2.059000000     3.166000000     1.003000000
O    -4.062000000    -2.784000000    -5.140000000
H    -4.114000000    -2.206000000    -5.900000000
H    -4.595000000    -2.351000000    -4.473000000
O    -4.004000000     1.599000000    -3.450000000
H    -3.155000000     1.518000000    -3.884000000
H    -3.811000000     2.044000000    -2.625000000
O    -1.571000000     1.356000000    -4.754000000
H    -1.487000000     1.002000000    -5.639000000
H    -0.673000000     1.399000000    -4.427000000
O     2.699000000     3.511000000    -4.783000000
H     2.124000000     3.883000000    -4.115000000
H     2.538000000     4.043000000    -5.562000000
O     5.848000000     4.804000000     0.726000000
H     5.797000000     3.849000000     0.767000000
H     5.111000000     5.107000000     1.258000000
O     6.701000000    -1.153000000     2.234000000
H     5.781000000    -1.103000000     2.494000000
H     6.698000000    -1.692000000     1.444000000
O    -5.498000000    -0.948000000    -3.657000000
H    -5.000000000    -0.481000000    -2.985000000
H    -5.496000000    -0.358000000    -4.410000000
O     1.761000000     7.914000000     2.624000000
H     1.518000000     7.077000000     3.021000000
H     0.926000000     8.347000000     2.449000000
O    -2.422000000    -1.206000000     4.067000000
H    -1.646000000    -0.670000000     4.229000000
H    -3.111000000    -0.794000000     4.588000000
O    -5.914000000     0.463000000    -0.547000000
H    -6.567000000     0.757000000    -1.183000000
H    -5.200000000     1.096000000    -0.627000000
O     4.194000000    -0.198000000     3.015000000
H     3.554000000     0.349000000     2.560000000
H     4.264000000     0.189000000     3.887000000
O    -3.502000000    -3.008000000     2.231000000
H    -3.548000000    -2.423000000     2.988000000
H    -2.770000000    -3.593000000     2.425000000
O     1.307000000     2.508000000     4.549000000
H     1.806000000     2.397000000     3.740000000
H     1.465000000     3.416000000     4.805000000
O     0.889000000    -1.589000000    -5.151000000
H     0.890000000    -0.709000000    -5.526000000
H     0.001000000    -1.706000000    -4.814000000
O    -4.025000000    -6.444000000    -1.439000000
H    -4.859000000    -6.087000000    -1.743000000
H    -4.197000000    -7.376000000    -1.305000000
O     4.616000000     2.988000000     2.742000000
H     4.372000000     3.887000000     2.521000000
H     3.807000000     2.487000000     2.637000000
O     3.090000000    -1.690000000    -3.268000000
H     2.295000000    -1.551000000    -3.783000000
H     2.802000000    -1.611000000    -2.358000000
O    -0.041000000    -0.120000000     4.561000000
H     0.383000000     0.733000000     4.653000000
H     0.637000000    -0.752000000     4.802000000
O    -1.512000000    -3.296000000    -4.028000000
H    -2.438000000    -3.267000000    -4.268000000
H    -1.514000000    -3.519000000    -3.097000000
O    -2.858000000    -6.892000000     1.354000000
H    -2.946000000    -6.784000000     0.406000000
H    -1.918000000    -7.004000000     1.496000000
O    -5.047000000    -5.518000000     1.846000000
H    -4.784000000    -4.615000000     2.023000000
H    -4.226000000    -5.976000000     1.666000000
O     0.656000000    -4.892000000    -1.631000000
H     0.963000000    -4.626000000    -2.498000000
H    -0.268000000    -4.643000000    -1.617000000
O     2.122000000     5.663000000     4.665000000
H     2.874000000     5.204000000     5.040000000
H     1.570000000     5.873000000     5.419000000
O     0.942000000     1.224000000    -4.085000000
H     1.231000000     2.067000000    -4.435000000
H     1.629000000     0.972000000    -3.468000000
O    -1.536000000     6.838000000    -0.471000000
H    -0.702000000     6.416000000    -0.264000000
H    -1.991000000     6.894000000     0.369000000
O    -1.063000000     3.420000000    -0.686000000
H    -0.252000000     3.858000000    -0.429000000
H    -0.791000000     2.535000000    -0.928000000
O    -0.212000000    -4.833000000     2.463000000
H    -0.563000000    -4.746000000     3.350000000
H    -0.069000000    -5.773000000     2.353000000
O     3.758000000     5.614000000     2.351000000
H     2.898000000     5.587000000     1.932000000
H     3.620000000     6.127000000     3.148000000
O     1.059000000     4.994000000    -0.216000000
H     1.828000000     5.536000000    -0.392000000
H     1.398000000     4.253000000     0.287000000
O     6.898000000     1.363000000     3.279000000
H     6.821000000     0.484000000     2.907000000
H     6.056000000     1.777000000     3.091000000
O     3.324000000     2.966000000    -1.524000000
H     2.602000000     3.393000000    -1.985000000
H     3.042000000     2.938000000    -0.610000000
O     1.651000000     0.902000000     6.960000000
H     1.193000000     0.552000000     7.725000000
H     1.834000000     0.135000000     6.418000000
O     1.958000000    -4.753000000     0.671000000
H     1.687000000    -5.188000000    -0.137000000
H     1.167000000    -4.732000000     1.209000000
O    -3.680000000     2.417000000    -0.801000000
H    -2.857000000     2.838000000    -0.553000000
H    -4.359000000     2.987000000    -0.441000000
O     0.999000000    -4.210000000    -4.532000000
H     1.200000000    -3.303000000    -4.763000000
H     0.071000000    -4.311000000    -4.744000000
O    -6.634000000    -2.093000000    -0.196000000
H    -7.078000000    -2.370000000    -0.997000000
H    -6.360000000    -1.193000000    -0.373000000
O    -2.505000000     1.697000000     2.718000000
H    -1.660000000     1.604000000     2.278000000
H    -2.960000000     0.873000000     2.542000000
O     1.026000000     4.414000000    -3.039000000
H     0.289000000     4.321000000    -3.643000000
H     0.651000000     4.837000000    -2.266000000
O    -3.918000000    -3.070000000    -0.326000000
H    -4.650000000    -2.488000000    -0.530000000
H    -3.870000000    -3.068000000     0.630000000
O    -1.533000000     2.701000000     4.984000000
H    -0.582000000     2.692000000     4.881000000
H    -1.870000000     2.480000000     4.116000000
O     2.189000000    -1.398000000     5.214000000
H     2.135000000    -2.276000000     5.591000000
H     3.095000000    -1.320000000     4.916000000
O     2.369000000    -2.033000000    -0.555000000
H     2.276000000    -2.816000000    -0.014000000
H     1.596000000    -1.507000000    -0.351000000
O     5.482000000    -1.161000000    -0.679000000
H     4.691000000    -1.492000000    -0.256000000
H     5.160000000    -0.614000000    -1.395000000
O     3.613000000     5.968000000    -0.682000000
H     3.758000000     6.871000000    -0.965000000
H     4.492000000     5.611000000    -0.559000000
O     5.130000000     1.117000000    -2.354000000
H     5.841000000     1.310000000    -1.743000000
H     4.519000000     1.846000000    -2.249000000
O     3.848000000     1.440000000     5.308000000
H     4.036000000     2.337000000     5.035000000
H     2.962000000     1.479000000     5.668000000
O    -1.773000000    -3.872000000     4.639000000
H    -2.707000000    -3.901000000     4.849000000
H    -1.644000000    -3.010000000     4.244000000
O    -2.025000000    -4.609000000    -1.558000000
H    -2.620000000    -5.346000000    -1.694000000
H    -2.510000000    -4.011000000    -0.989000000
