158
-3029.86671
C     0.175000000    -0.356000000     1.399000000
H     0.478000000    -0.889000000     2.297000000
C    -0.553000000    -1.040000000     0.487000000
H    -1.046000000    -1.966000000     0.771000000
C    -0.781000000    -0.458000000    -0.803000000
H    -1.435000000    -1.057000000    -1.412000000
C    -0.199000000     0.765000000    -1.155000000
H    -0.291000000     1.068000000    -2.195000000
C     0.752000000     1.251000000    -0.269000000
H     1.379000000     2.112000000    -0.486000000
C     0.930000000     0.745000000     1.010000000
C     1.946000000     1.294000000     1.980000000
O     2.105000000     0.798000000     3.115000000
O     2.550000000     2.270000000     1.620000000
O    -4.587000000     0.766000000    -0.748000000
H    -3.917000000     1.290000000    -1.186000000
H    -5.355000000     1.336000000    -0.717000000
O    -2.739000000     2.416000000    -2.380000000
H    -3.110000000     2.367000000    -3.261000000
H    -2.021000000     3.045000000    -2.457000000
O    -3.092000000    -3.506000000     5.111000000
H    -2.747000000    -4.281000000     4.668000000
H    -3.414000000    -2.949000000     4.402000000
O     2.642000000     4.710000000     5.160000000
H     3.145000000     5.307000000     5.714000000
H     1.818000000     4.584000000     5.630000000
O     2.976000000     2.402000000    -3.112000000
H     3.852000000     2.553000000    -3.469000000
H     3.039000000     2.681000000    -2.199000000
O    -1.051000000     0.613000000    -4.851000000
H    -0.922000000    -0.286000000    -5.155000000
H    -1.942000000     0.622000000    -4.501000000
O    -6.919000000    -3.929000000    -0.359000000
H    -6.548000000    -3.049000000    -0.416000000
H    -6.168000000    -4.514000000    -0.459000000
O     5.077000000     5.865000000     1.222000000
H     4.693000000     6.515000000     0.633000000
H     4.335000000     5.532000000     1.727000000
O    -3.417000000    -1.334000000    -3.406000000
H    -2.649000000    -1.875000000    -3.588000000
H    -3.650000000    -1.545000000    -2.502000000
O     3.834000000     3.007000000    -0.490000000
H     4.167000000     3.839000000    -0.153000000
H     3.241000000     2.693000000     0.192000000
O     0.658000000     2.028000000     5.399000000
H    -0.043000000     2.669000000     5.280000000
H     0.889000000     1.759000000     4.509000000
O    -5.029000000    -4.212000000    -3.153000000
H    -5.386000000    -3.375000000    -2.855000000
H    -5.412000000    -4.339000000    -4.022000000
O     4.508000000    -3.424000000     0.743000000
H     3.764000000    -2.842000000     0.592000000
H     4.190000000    -4.290000000     0.487000000
O     5.224000000    -0.562000000     1.223000000
H     4.930000000     0.043000000     0.543000000
H     5.445000000    -1.365000000     0.750000000
O     1.821000000    -3.145000000     3.059000000
H     2.460000000    -3.134000000     2.346000000
H     2.295000000    -2.791000000     3.811000000
O    -3.381000000    -3.089000000     1.308000000
H    -2.467000000    -3.178000000     1.577000000
H    -3.684000000    -3.989000000     1.186000000
O     1.773000000     0.345000000    -4.473000000
H     0.841000000     0.522000000    -4.345000000
H     2.216000000     0.981000000    -3.910000000
O     4.797000000     0.654000000    -1.204000000
H     4.284000000     1.412000000    -0.923000000
H     5.686000000     0.992000000    -1.309000000
O     2.011000000     3.053000000    -5.835000000
H     2.740000000     3.454000000    -6.309000000
H     2.417000000     2.653000000    -5.066000000
O     2.480000000    -1.171000000     4.862000000
H     3.166000000    -0.812000000     5.425000000
H     2.121000000    -0.410000000     4.407000000
O    -2.715000000    -0.840000000     3.706000000
H    -3.626000000    -0.694000000     3.451000000
H    -2.202000000    -0.415000000     3.019000000
O     0.412000000    -1.966000000    -6.004000000
H     1.248000000    -2.323000000    -6.305000000
H    -0.249000000    -2.475000000    -6.474000000
O    -0.548000000    -6.051000000     3.142000000
H    -0.392000000    -5.171000000     2.801000000
H    -1.500000000    -6.113000000     3.222000000
O    -1.092000000     0.045000000     5.989000000
H    -0.270000000     0.516000000     5.852000000
H    -1.636000000     0.289000000     5.241000000
O    -5.973000000     0.229000000    -3.290000000
H    -6.201000000    -0.635000000    -2.947000000
H    -5.166000000     0.464000000    -2.831000000
O     3.252000000     4.731000000     2.530000000
H     2.890000000     4.832000000     3.410000000
H     2.930000000     3.880000000     2.234000000
O     0.134000000     5.050000000     2.352000000
H    -0.458000000     5.783000000     2.520000000
H    -0.131000000     4.379000000     2.981000000
O     3.675000000     2.106000000     4.684000000
H     2.988000000     1.746000000     4.124000000
H     3.271000000     2.869000000     5.098000000
O    -0.317000000    -5.564000000    -0.094000000
H    -0.002000000    -6.374000000    -0.494000000
H     0.428000000    -5.242000000     0.414000000
O     5.903000000     1.010000000     3.359000000
H     5.587000000     0.541000000     2.587000000
H     5.123000000     1.434000000     3.717000000
O     2.293000000    -2.209000000    -0.585000000
H     1.832000000    -1.371000000    -0.543000000
H     2.186000000    -2.496000000    -1.492000000
O    -0.392000000     5.307000000    -0.463000000
H    -1.279000000     5.031000000    -0.230000000
H     0.087000000     5.296000000     0.366000000
O    -0.604000000     2.700000000    -6.433000000
H     0.317000000     2.953000000    -6.369000000
H    -0.728000000     2.067000000    -5.726000000
O    -1.245000000    -2.736000000    -3.802000000
H    -1.185000000    -3.686000000    -3.700000000
H    -0.693000000    -2.540000000    -4.559000000
O    -4.750000000     0.313000000     2.300000000
H    -5.088000000     1.130000000     2.666000000
H    -4.386000000     0.563000000     1.451000000
O    -4.217000000    -0.316000000    -5.921000000
H    -3.925000000    -0.609000000    -5.058000000
H    -4.674000000    -1.073000000    -6.289000000
O    -2.647000000    -6.925000000    -1.061000000
H    -1.973000000    -6.261000000    -0.912000000
H    -2.275000000    -7.496000000    -1.733000000
O     1.798000000    -3.393000000     6.510000000
H     1.993000000    -2.605000000     6.003000000
H     1.938000000    -3.133000000     7.421000000
O    -0.866000000     4.072000000    -3.674000000
H    -0.988000000     3.828000000    -4.592000000
H    -0.781000000     5.026000000    -3.689000000
O    -2.270000000     1.434000000     1.330000000
H    -2.358000000     2.286000000     0.902000000
H    -1.538000000     1.014000000     0.879000000
O    -1.473000000     2.803000000     3.777000000
H    -1.764000000     2.289000000     3.024000000
H    -2.012000000     3.593000000     3.751000000
O     1.311000000     6.340000000    -2.303000000
H     1.499000000     5.456000000    -2.618000000
H     0.546000000     6.235000000    -1.738000000
O    -2.852000000     3.896000000     0.036000000
H    -2.984000000     3.535000000    -0.841000000
H    -3.707000000     3.815000000     0.459000000
O    -0.856000000    -3.270000000     2.992000000
H    -1.252000000    -2.574000000     3.518000000
H     0.073000000    -3.245000000     3.224000000
O     4.291000000     0.085000000     6.700000000
H     4.606000000     0.702000000     6.039000000
H     4.691000000     0.384000000     7.516000000
O    -2.315000000    -5.399000000    -3.982000000
H    -2.835000000    -5.322000000    -4.781000000
H    -2.854000000    -4.991000000    -3.304000000
O     2.206000000    -2.733000000    -3.438000000
H     1.863000000    -3.553000000    -3.792000000
H     1.880000000    -2.059000000    -4.034000000
O    -4.379000000    -1.853000000    -0.955000000
H    -3.971000000    -2.234000000    -0.178000000
H    -4.557000000    -0.945000000    -0.712000000
