158
-3040.85651
C     0.907000000     0.122000000     1.146000000
H     1.594000000     0.110000000     1.989000000
C     0.239000000    -1.036000000     0.778000000
H     0.422000000    -1.971000000     1.301000000
C    -0.670000000    -0.954000000    -0.297000000
H    -1.322000000    -1.819000000    -0.481000000
C    -0.772000000     0.192000000    -1.092000000
H    -1.466000000     0.087000000    -1.922000000
C    -0.031000000     1.323000000    -0.738000000
H    -0.066000000     2.194000000    -1.387000000
C     0.745000000     1.369000000     0.426000000
C     1.508000000     2.560000000     0.803000000
O     2.235000000     2.433000000     1.787000000
O     1.574000000     3.515000000     0.074000000
O    -4.232000000     2.298000000    -0.656000000
H    -3.473000000     2.751000000    -1.025000000
H    -4.983000000     2.820000000    -0.940000000
O    -3.108000000     4.805000000    -2.806000000
H    -2.789000000     5.415000000    -2.140000000
H    -3.798000000     5.288000000    -3.262000000
O    -2.321000000     3.417000000    -5.017000000
H    -2.603000000     2.517000000    -4.852000000
H    -2.479000000     3.873000000    -4.190000000
O    -5.773000000    -2.683000000     3.239000000
H    -5.875000000    -3.590000000     2.949000000
H    -4.833000000    -2.585000000     3.390000000
O     0.840000000     2.909000000    -4.661000000
H     0.347000000     3.579000000    -5.135000000
H     1.644000000     2.800000000    -5.169000000
O     0.767000000     1.856000000     3.868000000
H     0.451000000     2.750000000     3.996000000
H     1.445000000     1.935000000     3.196000000
O     2.776000000    -4.384000000     1.310000000
H     3.031000000    -3.725000000     1.955000000
H     3.027000000    -4.005000000     0.468000000
O     3.730000000    -3.043000000    -0.798000000
H     3.425000000    -2.236000000    -1.213000000
H     4.476000000    -3.319000000    -1.330000000
O    -2.738000000    -2.440000000    -5.564000000
H    -2.344000000    -3.312000000    -5.595000000
H    -3.234000000    -2.431000000    -4.745000000
O     1.121000000     7.222000000    -2.430000000
H     1.152000000     6.358000000    -2.840000000
H     1.076000000     7.041000000    -1.491000000
O    -0.980000000    -4.241000000    -0.148000000
H    -0.170000000    -4.408000000    -0.630000000
H    -1.635000000    -4.786000000    -0.585000000
O     3.602000000     2.795000000    -2.223000000
H     3.061000000     3.162000000    -1.524000000
H     3.952000000     3.559000000    -2.682000000
O    -0.696000000     7.467000000     2.626000000
H     0.045000000     7.782000000     3.144000000
H    -0.306000000     7.179000000     1.801000000
O     1.287000000     1.195000000     6.528000000
H     2.069000000     1.722000000     6.693000000
H     0.983000000     1.479000000     5.666000000
O     5.734000000     5.968000000     1.317000000
H     4.974000000     6.539000000     1.431000000
H     5.362000000     5.091000000     1.217000000
O     5.861000000    -0.342000000     0.905000000
H     5.269000000     0.366000000     1.158000000
H     5.283000000    -1.033000000     0.580000000
O     3.901000000     0.411000000     3.083000000
H     4.438000000     0.897000000     3.709000000
H     3.317000000     1.070000000     2.707000000
O    -1.433000000     0.280000000     3.523000000
H    -1.946000000     0.887000000     2.989000000
H    -0.670000000     0.788000000     3.799000000
O     1.544000000    -4.826000000    -2.051000000
H     2.256000000    -4.566000000    -1.466000000
H     1.027000000    -4.030000000    -2.167000000
O    -2.999000000    -2.032000000     3.200000000
H    -2.383000000    -1.321000000     3.376000000
H    -2.445000000    -2.778000000     2.971000000
O     1.412000000    -7.492000000    -2.226000000
H     1.145000000    -6.584000000    -2.081000000
H     1.491000000    -7.862000000    -1.347000000
O    -4.018000000    -1.030000000     0.845000000
H    -3.433000000    -0.272000000     0.840000000
H    -3.816000000    -1.482000000     1.664000000
O     3.925000000    -0.537000000     6.020000000
H     3.723000000    -0.399000000     5.095000000
H     3.558000000     0.228000000     6.462000000
O    -5.299000000     0.215000000    -2.623000000
H    -5.326000000    -0.665000000    -2.249000000
H    -4.684000000     0.693000000    -2.067000000
O     2.797000000     5.877000000     1.312000000
H     2.672000000     6.120000000     2.229000000
H     2.500000000     4.968000000     1.263000000
O     0.140000000     6.013000000     0.203000000
H    -0.673000000     5.851000000    -0.276000000
H     0.581000000     5.163000000     0.219000000
O     2.956000000     8.051000000    -0.144000000
H     3.394000000     7.755000000    -0.943000000
H     2.716000000     7.243000000     0.310000000
O     4.914000000     3.256000000     1.721000000
H     4.008000000     2.958000000     1.797000000
H     5.210000000     3.356000000     2.625000000
O     6.732000000     2.857000000    -0.537000000
H     5.940000000     2.811000000    -0.002000000
H     6.621000000     2.167000000    -1.190000000
O    -5.615000000    -5.674000000    -0.303000000
H    -5.353000000    -6.531000000     0.033000000
H    -5.491000000    -5.079000000     0.436000000
O     2.594000000    -0.822000000    -1.802000000
H     1.900000000    -0.584000000    -1.186000000
H     2.546000000    -0.153000000    -2.485000000
O     2.279000000    -6.262000000     3.417000000
H     2.432000000    -5.725000000     2.640000000
H     1.560000000    -5.824000000     3.873000000
O     0.340000000     4.882000000     4.587000000
H     0.264000000     5.717000000     5.049000000
H     1.254000000     4.625000000     4.705000000
O    -2.976000000    -5.602000000    -1.242000000
H    -3.258000000    -6.108000000    -2.004000000
H    -3.783000000    -5.432000000    -0.756000000
O    -2.859000000     1.742000000     1.764000000
H    -3.161000000     1.789000000     0.857000000
H    -2.633000000     2.645000000     1.988000000
O     0.249000000     0.439000000    -4.248000000
H     0.393000000     1.385000000    -4.256000000
H    -0.419000000     0.293000000    -4.918000000
O    -1.206000000    -4.028000000     2.596000000
H    -0.890000000    -4.895000000     2.851000000
H    -0.916000000    -3.924000000     1.690000000
O     3.978000000    -2.144000000     2.399000000
H     3.660000000    -1.266000000     2.609000000
H     4.859000000    -2.175000000     2.773000000
O    -1.793000000     4.281000000     2.945000000
H    -2.435000000     4.403000000     3.645000000
H    -0.978000000     4.630000000     3.304000000
O     0.523000000     4.410000000    -2.149000000
H     0.818000000     3.906000000    -1.391000000
H     0.709000000     3.845000000    -2.899000000
O    -3.482000000     0.802000000    -4.907000000
H    -4.082000000     0.595000000    -4.190000000
H    -3.309000000    -0.041000000    -5.325000000
O     1.481000000    -3.108000000     5.399000000
H     1.727000000    -2.190000000     5.281000000
H     2.314000000    -3.569000000     5.496000000
O    -6.249000000    -4.201000000    -2.856000000
H    -6.132000000    -4.944000000    -2.264000000
H    -5.520000000    -3.614000000    -2.652000000
O     2.783000000     4.175000000     5.064000000
H     3.366000000     4.930000000     5.133000000
H     3.170000000     3.519000000     5.644000000
O    -6.852000000    -0.637000000     1.003000000
H    -5.906000000    -0.688000000     1.143000000
H    -7.003000000    -1.140000000     0.203000000
O     3.285000000    -3.990000000    -4.178000000
H     3.036000000    -3.306000000    -4.799000000
H     2.570000000    -4.007000000    -3.542000000
O     0.265000000    -2.507000000    -3.277000000
H     0.725000000    -2.334000000    -4.098000000
H     0.295000000    -1.674000000    -2.806000000
O    -3.936000000    -2.883000000    -1.465000000
H    -3.097000000    -3.335000000    -1.546000000
H    -3.880000000    -2.420000000    -0.629000000
