158
-3040.07272
C     0.938000000    -0.701000000     0.890000000
H     1.534000000    -1.340000000     1.537000000
C    -0.272000000    -1.260000000     0.438000000
H    -0.656000000    -2.242000000     0.700000000
C    -1.054000000    -0.463000000    -0.382000000
H    -2.046000000    -0.802000000    -0.642000000
C    -0.573000000     0.795000000    -0.898000000
H    -1.126000000     1.322000000    -1.672000000
C     0.669000000     1.271000000    -0.498000000
H     1.048000000     2.148000000    -1.016000000
C     1.397000000     0.557000000     0.483000000
C     2.704000000     1.215000000     1.067000000
O     3.259000000     0.807000000     2.057000000
O     3.116000000     2.192000000     0.505000000
O    -7.167000000    -3.398000000     0.868000000
H    -6.437000000    -3.987000000     0.681000000
H    -6.752000000    -2.576000000     1.127000000
O    -2.979000000    -0.685000000    -3.303000000
H    -3.086000000     0.244000000    -3.100000000
H    -3.813000000    -0.942000000    -3.695000000
O    -3.559000000     3.020000000    -3.527000000
H    -2.715000000     2.633000000    -3.760000000
H    -3.932000000     2.414000000    -2.887000000
O    -1.141000000     1.656000000    -4.200000000
H    -0.320000000     1.698000000    -3.710000000
H    -0.991000000     0.979000000    -4.861000000
O    -2.748000000    -6.926000000    -2.549000000
H    -2.611000000    -7.432000000    -3.350000000
H    -2.476000000    -6.038000000    -2.777000000
O     6.122000000     4.409000000     2.395000000
H     5.258000000     4.686000000     2.090000000
H     5.970000000     3.557000000     2.804000000
O     2.992000000     3.824000000     5.120000000
H     2.085000000     3.725000000     5.410000000
H     3.462000000     4.119000000     5.900000000
O    -5.077000000    -4.777000000    -3.413000000
H    -4.968000000    -4.429000000    -4.298000000
H    -4.293000000    -4.491000000    -2.944000000
O     2.149000000     6.365000000     1.268000000
H     2.375000000     5.444000000     1.392000000
H     1.405000000     6.510000000     1.854000000
O    -0.702000000     1.738000000     2.615000000
H    -0.413000000     2.169000000     3.419000000
H    -0.516000000     2.374000000     1.923000000
O    -7.137000000     1.049000000    -2.268000000
H    -7.462000000     1.578000000    -2.997000000
H    -6.708000000     1.678000000    -1.688000000
O    -6.338000000    -0.988000000     1.880000000
H    -6.029000000    -1.342000000     2.714000000
H    -6.402000000    -0.045000000     2.029000000
O    -3.129000000    -2.643000000     1.710000000
H    -3.363000000    -2.579000000     0.784000000
H    -3.048000000    -1.734000000     2.000000000
O     1.472000000     0.022000000     4.168000000
H     2.369000000     0.353000000     4.134000000
H     1.097000000     0.258000000     3.320000000
O     1.291000000    -2.592000000    -1.606000000
H     0.772000000    -2.488000000    -2.404000000
H     1.081000000    -1.820000000    -1.082000000
O     4.354000000    -1.600000000     3.045000000
H     4.637000000    -2.033000000     2.240000000
H     3.833000000    -0.855000000     2.745000000
O    -3.994000000     1.297000000    -1.633000000
H    -3.771000000     1.582000000    -0.747000000
H    -4.592000000     0.560000000    -1.504000000
O     4.183000000    -1.743000000    -1.693000000
H     4.231000000    -1.281000000    -2.530000000
H     3.305000000    -2.125000000    -1.681000000
O     6.366000000     1.403000000    -3.000000000
H     7.223000000     1.827000000    -3.039000000
H     6.001000000     1.676000000    -2.158000000
O    -1.327000000    -5.856000000     3.633000000
H    -1.540000000    -5.684000000     2.716000000
H    -2.029000000    -5.431000000     4.126000000
O     2.454000000    -1.671000000     6.092000000
H     1.673000000    -1.663000000     6.645000000
H     2.170000000    -1.268000000     5.271000000
O     0.486000000    -5.200000000    -0.912000000
H     0.993000000    -4.388000000    -0.921000000
H     1.080000000    -5.857000000    -1.275000000
O    -4.778000000    -4.640000000     0.545000000
H    -4.019000000    -4.539000000     1.120000000
H    -4.538000000    -4.168000000    -0.252000000
O    -3.437000000    -3.977000000     4.313000000
H    -3.192000000    -3.403000000     3.588000000
H    -4.360000000    -4.178000000     4.159000000
O    -1.364000000    -5.711000000     0.902000000
H    -2.127000000    -5.756000000     0.325000000
H    -0.636000000    -5.496000000     0.319000000
O     1.444000000     0.549000000    -3.410000000
H     2.296000000     0.253000000    -3.730000000
H     0.868000000    -0.207000000    -3.530000000
O    -5.623000000    -0.728000000    -0.818000000
H    -6.427000000    -0.580000000    -1.315000000
H    -5.885000000    -0.623000000     0.097000000
O     0.673000000     4.475000000    -1.216000000
H     0.764000000     5.214000000    -0.615000000
H     1.554000000     4.104000000    -1.274000000
O     5.736000000     0.918000000     0.287000000
H     5.061000000     1.252000000     0.878000000
H     5.299000000     0.226000000    -0.210000000
O    -0.439000000     5.484000000    -3.643000000
H     0.355000000     5.648000000    -4.152000000
H    -0.172000000     4.845000000    -2.982000000
O     5.235000000     2.077000000     3.272000000
H     4.399000000     1.685000000     3.019000000
H     5.801000000     1.330000000     3.468000000
O     3.539000000     3.768000000    -1.575000000
H     4.480000000     3.739000000    -1.748000000
H     3.391000000     3.072000000    -0.934000000
O     6.859000000    -0.146000000     3.545000000
H     6.806000000    -0.439000000     4.454000000
H     6.244000000    -0.710000000     3.075000000
O     6.531000000     3.556000000    -1.313000000
H     7.153000000     4.072000000    -1.827000000
H     6.973000000     3.414000000    -0.476000000
O     5.367000000    -2.306000000     0.579000000
H     4.869000000    -2.152000000    -0.223000000
H     6.277000000    -2.369000000     0.288000000
O    -0.084000000    -2.302000000    -3.762000000
H     0.270000000    -2.656000000    -4.578000000
H    -0.557000000    -1.513000000    -4.029000000
O     2.997000000     4.133000000     2.326000000
H     2.967000000     3.343000000     1.786000000
H     2.908000000     3.812000000     3.224000000
O    -1.927000000     4.124000000     0.620000000
H    -1.062000000     4.163000000     0.212000000
H    -2.152000000     5.038000000     0.793000000
O    -2.555000000    -0.188000000     2.873000000
H    -2.975000000     0.273000000     3.599000000
H    -1.706000000     0.244000000     2.774000000
O    -2.999000000     5.676000000    -3.261000000
H    -2.043000000     5.633000000    -3.232000000
H    -3.279000000     4.760000000    -3.284000000
O    -3.821000000     2.098000000     1.272000000
H    -3.407000000     1.339000000     1.683000000
H    -3.141000000     2.772000000     1.273000000
O     3.062000000     3.469000000    -5.525000000
H     2.720000000     4.072000000    -6.185000000
H     2.409000000     3.484000000    -4.825000000
O    -3.898000000    -2.893000000    -1.107000000
H    -3.029000000    -2.961000000    -1.502000000
H    -4.230000000    -2.045000000    -1.404000000
O     8.193000000     0.414000000     1.177000000
H     7.345000000     0.572000000     0.761000000
H     7.979000000     0.224000000     2.090000000
O     4.807000000     0.555000000     6.745000000
H     3.985000000     0.232000000     6.376000000
H     5.467000000    -0.067000000     6.442000000
O    -0.559000000    -2.930000000     4.625000000
H    -1.368000000    -2.857000000     4.118000000
H    -0.107000000    -3.685000000     4.247000000
O    -1.906000000    -4.201000000    -2.462000000
H    -1.190000000    -4.704000000    -2.076000000
H    -1.475000000    -3.587000000    -3.056000000
O    -6.201000000     1.615000000     2.312000000
H    -6.803000000     2.339000000     2.485000000
H    -5.399000000     2.037000000     2.006000000
