158
-3028.40067
C    -0.434000000    -0.368000000     1.349000000
H    -0.750000000    -0.672000000     2.344000000
C    -0.189000000    -1.271000000     0.354000000
H    -0.230000000    -2.325000000     0.617000000
C     0.094000000    -0.822000000    -0.851000000
H     0.191000000    -1.542000000    -1.659000000
C     0.212000000     0.571000000    -1.169000000
H     0.581000000     0.885000000    -2.142000000
C     0.091000000     1.459000000    -0.184000000
H     0.247000000     2.489000000    -0.496000000
C    -0.240000000     1.028000000     1.112000000
C    -0.526000000     2.060000000     2.123000000
O    -1.061000000     1.708000000     3.137000000
O     0.067000000     3.132000000     1.986000000
O     5.338000000    -4.028000000     1.136000000
H     4.742000000    -3.766000000     0.434000000
H     6.066000000    -3.409000000     1.075000000
O    -0.969000000    -7.314000000    -4.362000000
H    -0.885000000    -6.559000000    -3.779000000
H    -0.681000000    -8.058000000    -3.834000000
O    -3.289000000    -5.598000000    -2.128000000
H    -2.368000000    -5.800000000    -2.297000000
H    -3.567000000    -6.259000000    -1.494000000
O     4.734000000     2.489000000    -0.091000000
H     4.124000000     3.137000000    -0.446000000
H     4.190000000     1.722000000     0.086000000
O    -1.611000000     0.663000000    -5.172000000
H    -2.157000000     0.198000000    -4.538000000
H    -1.491000000     0.040000000    -5.888000000
O    -1.685000000     6.202000000     2.895000000
H    -0.948000000     6.568000000     2.406000000
H    -2.347000000     6.894000000     2.883000000
O    -3.852000000     4.933000000    -1.432000000
H    -3.361000000     4.982000000    -2.252000000
H    -3.406000000     4.253000000    -0.926000000
O     6.208000000    -2.261000000    -1.065000000
H     6.536000000    -1.378000000    -1.237000000
H     5.271000000    -2.209000000    -1.251000000
O     3.776000000    -5.596000000    -3.625000000
H     3.156000000    -5.231000000    -2.993000000
H     4.603000000    -5.155000000    -3.431000000
O     2.869000000     2.940000000     6.801000000
H     3.410000000     3.714000000     6.957000000
H     2.550000000     3.047000000     5.905000000
O     0.426000000    -2.324000000     7.103000000
H    -0.361000000    -1.859000000     6.817000000
H     0.122000000    -2.898000000     7.806000000
O     0.272000000     5.762000000    -0.192000000
H     0.609000000     4.888000000     0.003000000
H    -0.065000000     6.081000000     0.645000000
O    -2.944000000     3.254000000     0.260000000
H    -2.686000000     2.711000000     1.005000000
H    -3.682000000     2.787000000    -0.133000000
O     2.324000000    -1.213000000     5.290000000
H     1.823000000    -1.551000000     6.033000000
H     1.827000000    -0.451000000     4.993000000
O     0.808000000     0.902000000     4.931000000
H     0.382000000     1.159000000     5.748000000
H     0.130000000     1.005000000     4.264000000
O     0.323000000    -0.301000000    -7.505000000
H    -0.014000000    -0.686000000    -8.314000000
H     0.102000000    -0.938000000    -6.826000000
O     1.488000000     3.478000000     4.196000000
H     1.356000000     2.610000000     4.578000000
H     0.804000000     3.553000000     3.531000000
O     1.728000000    -3.641000000    -5.440000000
H     2.620000000    -3.853000000    -5.714000000
H     1.283000000    -4.488000000    -5.398000000
O    -0.250000000     2.926000000    -4.860000000
H    -0.689000000     2.128000000    -5.155000000
H    -0.809000000     3.261000000    -4.159000000
O     2.479000000    -5.032000000     0.911000000
H     3.003000000    -4.576000000     1.569000000
H     2.505000000    -5.951000000     1.178000000
O     2.207000000    -4.271000000     4.068000000
H     1.271000000    -4.474000000     4.058000000
H     2.250000000    -3.355000000     4.345000000
O    -0.842000000    -2.412000000    -5.924000000
H     0.087000000    -2.563000000    -5.748000000
H    -1.241000000    -2.339000000    -5.057000000
O    -3.534000000     0.920000000     2.661000000
H    -3.585000000    -0.023000000     2.817000000
H    -2.629000000     1.149000000     2.870000000
O     2.219000000     3.950000000     0.802000000
H     2.916000000     4.213000000     1.403000000
H     1.514000000     3.644000000     1.372000000
O     1.485000000     6.501000000     4.234000000
H     1.473000000     5.544000000     4.219000000
H     1.088000000     6.732000000     5.074000000
O    -2.623000000    -2.543000000     4.230000000
H    -2.590000000    -2.053000000     3.408000000
H    -2.779000000    -1.877000000     4.899000000
O     2.183000000    -4.452000000    -1.679000000
H     2.128000000    -4.755000000    -0.772000000
H     2.280000000    -3.502000000    -1.608000000
O     2.182000000     3.264000000    -6.495000000
H     1.985000000     2.990000000    -7.391000000
H     1.373000000     3.101000000    -6.011000000
O    -6.216000000     0.762000000     3.896000000
H    -5.824000000     1.110000000     4.697000000
H    -5.527000000     0.842000000     3.237000000
O    -1.863000000     3.787000000     4.504000000
H    -1.445000000     3.046000000     4.065000000
H    -1.674000000     4.537000000     3.939000000
O    -3.357000000    -0.751000000    -0.693000000
H    -2.516000000    -0.840000000    -1.141000000
H    -4.006000000    -1.003000000    -1.349000000
O     1.889000000    -1.578000000    -3.526000000
H     2.201000000    -2.289000000    -4.085000000
H     1.879000000    -0.811000000    -4.099000000
O     2.827000000    -0.108000000    -5.638000000
H     2.130000000    -0.080000000    -6.293000000
H     3.484000000    -0.696000000    -6.011000000
O     3.201000000     0.436000000     0.383000000
H     3.341000000     0.055000000     1.250000000
H     2.257000000     0.589000000     0.338000000
O     2.307000000     6.053000000    -2.158000000
H     1.894000000     6.546000000    -2.867000000
H     1.595000000     5.880000000    -1.541000000
O    -0.746000000    -4.454000000     3.772000000
H    -1.354000000    -3.731000000     3.925000000
H    -1.158000000    -4.971000000     3.080000000
O     4.089000000     3.463000000     3.372000000
H     4.537000000     2.618000000     3.321000000
H     3.180000000     3.241000000     3.571000000
O    -2.393000000     3.960000000     7.253000000
H    -2.277000000     4.042000000     6.306000000
H    -2.334000000     4.857000000     7.580000000
O    -4.479000000     4.497000000     3.434000000
H    -4.561000000     4.395000000     2.486000000
H    -3.598000000     4.181000000     3.634000000
O     3.663000000    -0.920000000     2.597000000
H     2.915000000    -0.902000000     3.194000000
H     4.236000000    -1.600000000     2.951000000
O    -0.362000000    -5.032000000    -2.645000000
H     0.372000000    -4.785000000    -2.083000000
H    -0.564000000    -4.237000000    -3.138000000
O    -0.107000000     2.584000000     7.077000000
H    -1.016000000     2.778000000     6.849000000
H     0.295000000     3.442000000     7.212000000
O     3.118000000    -1.861000000    -1.075000000
H     3.199000000    -1.080000000    -0.527000000
H     2.582000000    -1.580000000    -1.816000000
O    -2.016000000    -0.933000000     6.549000000
H    -2.691000000    -1.468000000     6.966000000
H    -2.349000000    -0.038000000     6.608000000
O     4.396000000     2.310000000    -4.808000000
H     4.040000000     1.423000000    -4.859000000
H     3.798000000     2.838000000    -5.336000000
O    -3.044000000     1.468000000     5.849000000
H    -3.014000000     2.107000000     5.138000000
H    -3.814000000     1.716000000     6.361000000
O    -4.058000000    -1.856000000     1.912000000
H    -4.194000000    -2.797000000     1.807000000
H    -3.944000000    -1.529000000     1.019000000
O    -2.926000000    -1.622000000    -4.098000000
H    -3.520000000    -1.083000000    -4.620000000
H    -3.459000000    -2.367000000    -3.822000000
