158
-2985.68634
C    -0.484000000    -1.224000000     0.764000000
H    -0.953000000    -2.093000000     1.219000000
C    -0.851000000    -0.835000000    -0.559000000
H    -1.469000000    -1.464000000    -1.195000000
C    -0.264000000     0.245000000    -1.162000000
H    -0.564000000     0.603000000    -2.149000000
C     0.660000000     1.056000000    -0.486000000
H     1.050000000     1.975000000    -0.916000000
C     0.949000000     0.759000000     0.814000000
H     1.570000000     1.450000000     1.379000000
C     0.494000000    -0.468000000     1.439000000
C     0.686000000    -0.718000000     2.915000000
O    -0.012000000    -1.529000000     3.468000000
O     1.227000000     0.080000000     3.626000000
O    -2.331000000     3.164000000    -0.966000000
H    -2.947000000     3.711000000    -1.454000000
H    -1.893000000     2.640000000    -1.637000000
O    -0.884000000     5.809000000    -1.386000000
H    -0.927000000     6.152000000    -2.279000000
H    -0.580000000     4.908000000    -1.490000000
O    -1.263000000     1.437000000    -7.551000000
H    -1.900000000     1.784000000    -6.927000000
H    -1.190000000     0.509000000    -7.328000000
O     5.510000000     2.764000000    -1.094000000
H     4.999000000     3.480000000    -0.717000000
H     5.178000000     2.677000000    -1.987000000
O    -2.813000000    -2.513000000    -4.690000000
H    -3.171000000    -2.395000000    -3.810000000
H    -2.418000000    -3.385000000    -4.673000000
O     4.540000000    -3.066000000     6.017000000
H     4.219000000    -2.207000000     5.741000000
H     3.749000000    -3.593000000     6.126000000
O     1.571000000    -3.458000000     6.043000000
H     1.350000000    -2.532000000     5.949000000
H     0.837000000    -3.831000000     6.532000000
O    -4.906000000     4.307000000    -1.967000000
H    -5.779000000     4.012000000    -1.707000000
H    -4.640000000     3.693000000    -2.652000000
O     3.566000000    -0.334000000     8.657000000
H     3.578000000     0.613000000     8.801000000
H     3.126000000    -0.442000000     7.814000000
O    -2.104000000    -2.882000000     6.739000000
H    -1.277000000    -2.429000000     6.906000000
H    -2.350000000    -3.251000000     7.587000000
O     2.187000000     5.204000000     1.589000000
H     1.334000000     5.013000000     1.977000000
H     2.108000000     6.101000000     1.265000000
O    -0.952000000     1.683000000     4.264000000
H    -0.821000000     2.297000000     3.542000000
H    -0.157000000     1.150000000     4.273000000
O     3.414000000     4.733000000    -0.872000000
H     2.707000000     4.782000000    -1.516000000
H     2.982000000     4.882000000    -0.031000000
O     1.925000000    -3.876000000     3.420000000
H     2.092000000    -3.732000000     4.352000000
H     1.069000000    -3.475000000     3.266000000
O     0.186000000    -1.095000000     6.275000000
H    -0.287000000    -0.286000000     6.470000000
H     0.464000000    -0.996000000     5.364000000
O    -1.292000000     3.444000000    -3.511000000
H    -1.918000000     3.759000000    -4.163000000
H    -0.674000000     2.910000000    -4.010000000
O     3.333000000    -0.466000000     5.390000000
H     2.736000000    -0.160000000     4.707000000
H     3.703000000     0.336000000     5.761000000
O     0.164000000    -1.639000000    -6.879000000
H    -0.642000000    -2.119000000    -7.067000000
H     0.657000000    -2.217000000    -6.297000000
O     0.974000000    -4.597000000    -0.887000000
H     1.015000000    -4.560000000    -1.842000000
H     1.175000000    -3.705000000    -0.604000000
O    -3.342000000     0.215000000     4.259000000
H    -2.423000000     0.161000000     4.521000000
H    -3.326000000     0.114000000     3.307000000
O    -5.845000000    -1.234000000     0.212000000
H    -6.133000000    -0.726000000    -0.547000000
H    -6.584000000    -1.197000000     0.819000000
O    -1.834000000    -3.299000000     3.959000000
H    -2.284000000    -3.165000000     4.793000000
H    -1.361000000    -2.481000000     3.808000000
O     4.122000000     2.015000000     6.273000000
H     4.914000000     2.344000000     6.699000000
H     3.607000000     2.800000000     6.087000000
O     4.499000000     5.225000000     3.363000000
H     3.800000000     5.103000000     2.720000000
H     5.258000000     5.491000000     2.844000000
O    -2.686000000     4.011000000    -5.685000000
H    -3.129000000     3.536000000    -6.388000000
H    -2.080000000     4.598000000    -6.138000000
O     1.776000000     2.509000000     3.640000000
H     1.036000000     2.912000000     3.186000000
H     1.590000000     1.570000000     3.615000000
O    -4.383000000    -5.189000000    -3.215000000
H    -4.902000000    -4.385000000    -3.219000000
H    -3.500000000    -4.906000000    -3.452000000
O     3.151000000     4.621000000     5.873000000
H     3.844000000     4.991000000     5.326000000
H     2.548000000     4.213000000     5.251000000
O     5.968000000    -0.858000000     3.134000000
H     5.530000000    -0.538000000     2.345000000
H     5.538000000    -1.691000000     3.326000000
O    -1.779000000    -4.736000000     1.761000000
H    -2.577000000    -4.302000000     1.459000000
H    -1.458000000    -4.180000000     2.472000000
O    -2.613000000    -0.382000000    -6.134000000
H    -3.238000000    -0.664000000    -6.802000000
H    -2.532000000    -1.135000000    -5.549000000
O     0.550000000    -6.176000000     2.134000000
H    -0.335000000    -5.818000000     2.065000000
H     1.106000000    -5.413000000     2.289000000
O     1.916000000     0.516000000    -6.598000000
H     1.175000000    -0.081000000    -6.703000000
H     2.040000000     0.899000000    -7.466000000
O    -1.286000000     1.350000000     6.975000000
H    -1.256000000     1.838000000     6.152000000
H    -0.944000000     1.960000000     7.628000000
O    -3.528000000     2.284000000     1.281000000
H    -3.417000000     1.335000000     1.223000000
H    -3.023000000     2.629000000     0.544000000
O    -1.871000000    -4.776000000    -3.482000000
H    -0.932000000    -4.639000000    -3.352000000
H    -1.935000000    -5.654000000    -3.859000000
O     1.587000000    -1.881000000    -1.513000000
H     0.989000000    -1.303000000    -1.039000000
H     2.009000000    -1.313000000    -2.157000000
O     1.092000000     2.607000000    -4.759000000
H     1.338000000     3.333000000    -5.332000000
H     1.516000000     1.842000000    -5.146000000
O    -3.579000000    -0.527000000     1.566000000
H    -3.021000000    -1.123000000     1.067000000
H    -4.471000000    -0.795000000     1.348000000
O     4.608000000    -0.676000000    -5.773000000
H     3.806000000    -0.155000000    -5.735000000
H     4.333000000    -1.510000000    -6.154000000
O     1.532000000     4.454000000    -2.725000000
H     0.814000000     5.077000000    -2.834000000
H     1.274000000     3.696000000    -3.249000000
O     5.398000000    -0.676000000    -1.029000000
H     5.476000000     0.270000000    -1.148000000
H     4.597000000    -0.788000000    -0.516000000
O     3.924000000    -0.549000000     1.468000000
H     3.919000000    -1.454000000     1.778000000
H     3.396000000    -0.073000000     2.108000000
O    -4.100000000    -4.822000000     4.105000000
H    -4.190000000    -5.721000000     3.789000000
H    -3.454000000    -4.426000000     3.519000000
O     4.549000000    -3.070000000     2.467000000
H     4.921000000    -3.895000000     2.154000000
H     3.718000000    -3.319000000     2.870000000
O    -4.463000000     2.412000000    -4.017000000
H    -3.837000000     2.493000000    -4.737000000
H    -5.042000000     1.697000000    -4.283000000
O    -0.475000000     3.675000000     2.267000000
H    -0.741000000     4.595000000     2.276000000
H    -0.917000000     3.305000000     1.503000000
O    -4.205000000    -3.529000000     1.290000000
H    -4.715000000    -4.339000000     1.318000000
H    -4.757000000    -2.915000000     0.807000000
