158
-3002.34739
C    -0.196000000    -1.318000000     0.617000000
H    -0.452000000    -2.296000000     1.017000000
C    -0.854000000    -0.793000000    -0.460000000
H    -1.689000000    -1.407000000    -0.789000000
C    -0.642000000     0.470000000    -0.968000000
H    -1.149000000     0.710000000    -1.846000000
C     0.294000000     1.262000000    -0.402000000
H     0.601000000     2.244000000    -0.754000000
C     1.062000000     0.746000000     0.658000000
H     1.848000000     1.311000000     1.152000000
C     0.812000000    -0.541000000     1.192000000
C     1.678000000    -1.093000000     2.296000000
O     1.450000000    -2.116000000     2.830000000
O     2.529000000    -0.464000000     2.800000000
O    -1.609000000     3.858000000    -1.966000000
H    -1.571000000     3.206000000    -1.267000000
H    -1.520000000     3.350000000    -2.773000000
O     0.323000000     5.803000000    -1.350000000
H     1.063000000     5.716000000    -1.951000000
H    -0.333000000     5.193000000    -1.687000000
O    -1.744000000     1.145000000    -6.602000000
H    -1.893000000     2.090000000    -6.631000000
H    -2.166000000     0.860000000    -5.792000000
O    -5.624000000     0.641000000    -5.033000000
H    -5.425000000     0.919000000    -5.927000000
H    -5.773000000    -0.302000000    -5.103000000
O    -5.321000000    -1.620000000    -3.457000000
H    -5.437000000    -2.233000000    -2.730000000
H    -4.528000000    -1.922000000    -3.900000000
O    -1.651000000    -3.966000000    -3.226000000
H    -1.790000000    -4.270000000    -2.329000000
H    -1.975000000    -4.681000000    -3.774000000
O     6.202000000    -1.788000000     5.466000000
H     6.788000000    -1.493000000     4.769000000
H     5.353000000    -1.891000000     5.037000000
O     3.296000000    -3.334000000     6.408000000
H     3.419000000    -2.422000000     6.143000000
H     3.538000000    -3.349000000     7.334000000
O    -1.890000000     3.594000000     2.752000000
H    -1.288000000     3.900000000     2.074000000
H    -2.133000000     2.710000000     2.475000000
O    -5.225000000    -3.371000000    -1.292000000
H    -6.012000000    -3.916000000    -1.294000000
H    -4.702000000    -3.708000000    -0.565000000
O    -3.019000000    -2.311000000    -4.780000000
H    -2.706000000    -2.757000000    -3.993000000
H    -2.400000000    -2.571000000    -5.463000000
O     5.811000000     3.773000000     3.449000000
H     5.093000000     3.185000000     3.215000000
H     5.455000000     4.651000000     3.313000000
O     0.123000000    -3.408000000     6.489000000
H     0.355000000    -2.512000000     6.733000000
H     0.822000000    -3.946000000     6.862000000
O     1.989000000     4.005000000     1.878000000
H     1.109000000     4.337000000     1.698000000
H     2.510000000     4.789000000     2.051000000
O     0.099000000     1.081000000     4.876000000
H    -0.552000000     0.382000000     4.930000000
H     0.860000000     0.669000000     4.468000000
O     4.705000000     3.654000000    -0.168000000
H     4.018000000     3.529000000    -0.823000000
H     4.884000000     4.594000000    -0.184000000
O     2.952000000    -4.003000000     4.001000000
H     2.904000000    -3.886000000     4.950000000
H     2.554000000    -3.210000000     3.642000000
O     0.542000000    -0.977000000     7.150000000
H     0.362000000    -0.063000000     7.373000000
H     1.275000000    -0.933000000     6.535000000
O    -1.006000000     2.811000000    -4.216000000
H    -1.290000000     1.897000000    -4.239000000
H    -0.113000000     2.792000000    -4.558000000
O     3.210000000    -0.926000000     5.537000000
H     2.956000000    -0.808000000     4.621000000
H     3.667000000    -0.116000000     5.765000000
O     0.252000000    -2.327000000    -4.153000000
H     0.764000000    -1.830000000    -3.516000000
H    -0.187000000    -3.001000000    -3.633000000
O    -1.708000000    -0.965000000     4.405000000
H    -2.491000000    -0.893000000     3.858000000
H    -1.266000000    -1.752000000     4.087000000
O    -4.255000000    -0.444000000     1.462000000
H    -4.485000000     0.229000000     2.102000000
H    -4.978000000    -0.437000000     0.836000000
O    -0.194000000    -4.035000000     3.641000000
H    -0.136000000    -3.794000000     4.565000000
H     0.429000000    -3.455000000     3.203000000
O     3.370000000     2.071000000     3.132000000
H     2.816000000     2.630000000     2.588000000
H     2.964000000     1.206000000     3.079000000
O    -1.909000000    -6.360000000    -1.421000000
H    -1.103000000    -5.897000000    -1.193000000
H    -1.704000000    -6.809000000    -2.241000000
O     3.007000000     2.890000000     5.638000000
H     3.221000000     2.700000000     4.725000000
H     2.181000000     3.372000000     5.595000000
O     1.606000000    -6.830000000     3.952000000
H     1.241000000    -7.144000000     3.125000000
H     1.945000000    -5.958000000     3.749000000
O     6.638000000    -0.195000000     3.365000000
H     7.219000000     0.007000000     2.632000000
H     5.794000000    -0.388000000     2.956000000
O    -1.267000000    -5.409000000     1.760000000
H    -1.906000000    -4.857000000     1.310000000
H    -1.037000000    -4.916000000     2.548000000
O     0.452000000    -5.611000000    -0.678000000
H     0.836000000    -5.403000000     0.174000000
H     1.108000000    -5.323000000    -1.313000000
O    -2.843000000     0.659000000    -4.289000000
H    -3.754000000     0.887000000    -4.471000000
H    -2.898000000    -0.083000000    -3.687000000
O     2.703000000    -4.498000000     0.963000000
H     3.077000000    -3.678000000     0.643000000
H     3.241000000    -4.728000000     1.721000000
O     0.411000000    -0.479000000    -5.949000000
H     0.088000000    -1.233000000    -5.456000000
H    -0.337000000     0.118000000    -5.990000000
O     4.175000000     0.782000000    -2.876000000
H     4.122000000     1.712000000    -3.099000000
H     3.772000000     0.335000000    -3.620000000
O    -4.898000000     3.667000000    -0.712000000
H    -5.218000000     2.944000000    -1.251000000
H    -4.571000000     4.309000000    -1.342000000
O     1.526000000    -1.515000000    -2.034000000
H     1.856000000    -2.409000000    -2.122000000
H     1.204000000    -1.465000000    -1.134000000
O     1.318000000     2.297000000    -5.476000000
H     1.289000000     1.344000000    -5.392000000
H     1.472000000     2.451000000    -6.408000000
O    -1.931000000     1.043000000     1.795000000
H    -2.590000000     0.404000000     1.525000000
H    -1.170000000     0.849000000     1.249000000
O     2.832000000    -0.615000000    -4.787000000
H     1.938000000    -0.607000000    -5.129000000
H     3.131000000    -1.514000000    -4.920000000
O    -3.364000000     5.864000000    -2.110000000
H    -3.068000000     6.556000000    -2.701000000
H    -2.858000000     5.094000000    -2.370000000
O     3.157000000     4.106000000    -2.542000000
H     2.249000000     4.358000000    -2.710000000
H     3.462000000     3.741000000    -3.372000000
O     4.813000000    -1.452000000     1.693000000
H     4.974000000    -2.371000000     1.907000000
H     3.978000000    -1.250000000     2.115000000
O     5.265000000    -3.948000000     2.104000000
H     5.764000000    -4.589000000     1.598000000
H     5.192000000    -4.336000000     2.976000000
O    -5.806000000     2.105000000    -2.869000000
H    -5.849000000     2.976000000    -3.263000000
H    -5.838000000     1.504000000    -3.613000000
O    -0.484000000     5.050000000     1.055000000
H    -0.295000000     5.298000000     0.150000000
H    -1.184000000     5.644000000     1.326000000
O    -3.171000000    -3.482000000     1.110000000
H    -3.962000000    -3.801000000     1.546000000
H    -2.916000000    -2.710000000     1.614000000
O    -6.336000000     0.795000000    -0.315000000
H    -7.090000000     1.308000000    -0.604000000
H    -5.933000000     0.484000000    -1.126000000
