158
-3023.91251
C     1.339000000    -0.357000000     0.462000000
H     2.260000000    -0.761000000     0.874000000
C     0.156000000    -0.803000000     1.025000000
H     0.091000000    -1.501000000     1.856000000
C    -1.028000000    -0.337000000     0.463000000
H    -1.909000000    -0.543000000     1.057000000
C    -1.050000000     0.601000000    -0.572000000
H    -2.018000000     1.029000000    -0.819000000
C     0.129000000     0.956000000    -1.191000000
H     0.044000000     1.582000000    -2.076000000
C     1.312000000     0.482000000    -0.599000000
C     2.669000000     0.685000000    -1.328000000
O     2.694000000     0.807000000    -2.533000000
O     3.626000000     0.977000000    -0.669000000
O    -3.263000000    -0.099000000     3.708000000
H    -3.355000000    -0.245000000     2.767000000
H    -3.424000000    -0.957000000     4.100000000
O     1.081000000    -2.489000000    -2.266000000
H     0.939000000    -2.819000000    -1.378000000
H     0.504000000    -3.021000000    -2.814000000
O    -3.361000000    -2.711000000     4.851000000
H    -4.301000000    -2.527000000     4.875000000
H    -3.260000000    -3.343000000     4.139000000
O    -4.010000000    -0.059000000    -3.623000000
H    -4.571000000    -0.678000000    -3.156000000
H    -3.677000000     0.524000000    -2.940000000
O    -1.904000000     0.678000000    -5.455000000
H    -2.442000000    -0.031000000    -5.102000000
H    -1.817000000     1.297000000    -4.729000000
O     0.972000000    -1.864000000     6.510000000
H     1.481000000    -1.407000000     5.841000000
H     1.471000000    -2.661000000     6.690000000
O     2.239000000     4.791000000    -3.099000000
H     2.773000000     4.343000000    -2.443000000
H     1.695000000     5.395000000    -2.593000000
O    -5.201000000    -3.155000000    -2.206000000
H    -5.881000000    -3.589000000    -2.722000000
H    -4.509000000    -2.961000000    -2.838000000
O     0.447000000    -3.796000000     3.318000000
H     0.636000000    -4.474000000     3.966000000
H    -0.460000000    -3.544000000     3.491000000
O    -4.641000000     3.028000000    -4.768000000
H    -4.098000000     3.586000000    -5.325000000
H    -4.026000000     2.642000000    -4.144000000
O     5.966000000     0.265000000     0.156000000
H     5.102000000     0.590000000    -0.096000000
H     6.578000000     0.910000000    -0.199000000
O    -5.187000000     1.813000000     4.995000000
H    -5.368000000     1.372000000     5.825000000
H    -4.476000000     1.304000000     4.605000000
O    -0.744000000     3.065000000    -4.056000000
H     0.070000000     3.473000000    -3.761000000
H    -1.172000000     3.740000000    -4.583000000
O     0.621000000     4.635000000     0.459000000
H     1.467000000     4.262000000     0.706000000
H    -0.022000000     4.104000000     0.930000000
O     4.708000000    -0.154000000     2.459000000
H     4.839000000     0.650000000     2.962000000
H     5.135000000     0.016000000     1.619000000
O    -1.582000000     5.976000000    -4.402000000
H    -1.323000000     6.896000000    -4.353000000
H    -1.347000000     5.615000000    -3.547000000
O     2.255000000     2.497000000    -4.910000000
H     2.305000000     1.757000000    -4.306000000
H     2.480000000     3.258000000    -4.375000000
O     2.152000000    -0.976000000    -4.329000000
H     2.379000000    -0.241000000    -3.760000000
H     1.666000000    -1.576000000    -3.763000000
O    -1.373000000     4.919000000    -1.899000000
H    -2.147000000     5.330000000    -1.515000000
H    -0.700000000     4.996000000    -1.222000000
O     5.393000000     1.152000000    -3.351000000
H     5.138000000     1.339000000    -4.254000000
H     4.565000000     1.105000000    -2.873000000
O    -3.779000000     2.896000000    -1.686000000
H    -2.866000000     3.165000000    -1.577000000
H    -4.249000000     3.711000000    -1.861000000
O     7.811000000     1.532000000    -2.096000000
H     6.951000000     1.274000000    -2.429000000
H     8.011000000     2.347000000    -2.556000000
O     0.912000000    -3.684000000     0.382000000
H     0.454000000    -3.758000000     1.220000000
H     1.412000000    -2.871000000     0.454000000
O     0.934000000     1.579000000     3.606000000
H     0.082000000     1.494000000     4.033000000
H     1.449000000     0.850000000     3.952000000
O     4.032000000     4.545000000     1.273000000
H     3.681000000     3.687000000     1.511000000
H     4.073000000     5.024000000     2.101000000
O    -1.794000000     2.505000000     4.332000000
H    -2.338000000     1.804000000     3.973000000
H    -1.526000000     2.184000000     5.193000000
O    -2.965000000     4.991000000     1.516000000
H    -2.958000000     5.297000000     2.423000000
H    -2.373000000     4.239000000     1.512000000
O     6.715000000    -1.481000000     3.625000000
H     7.406000000    -0.823000000     3.553000000
H     5.926000000    -1.035000000     3.315000000
O     4.615000000     1.695000000    -6.305000000
H     3.733000000     1.897000000    -5.993000000
H     4.513000000     1.574000000    -7.249000000
O     2.834000000     2.242000000     1.623000000
H     2.198000000     1.844000000     2.218000000
H     2.940000000     1.600000000     0.921000000
O    -1.840000000    -4.303000000     0.874000000
H    -1.395000000    -5.016000000     0.417000000
H    -1.505000000    -3.507000000     0.462000000
O     3.897000000    -2.846000000    -0.177000000
H     4.243000000    -2.211000000     0.449000000
H     4.122000000    -2.485000000    -1.034000000
O    -7.186000000     0.911000000    -1.949000000
H    -7.958000000     0.498000000    -1.560000000
H    -6.483000000     0.741000000    -1.322000000
O    -7.094000000    -2.125000000    -0.603000000
H    -6.389000000    -2.499000000    -1.131000000
H    -7.865000000    -2.647000000    -0.827000000
O    -3.817000000    -4.034000000     2.640000000
H    -3.253000000    -4.194000000     1.884000000
H    -4.418000000    -3.347000000     2.350000000
O    -4.054000000    -6.483000000    -0.635000000
H    -3.269000000    -6.312000000    -0.116000000
H    -3.732000000    -6.586000000    -1.530000000
O     4.010000000     3.613000000    -1.355000000
H     4.119000000     4.004000000    -0.488000000
H     3.948000000     2.673000000    -1.187000000
O     5.439000000     5.496000000    -2.659000000
H     5.000000000     4.697000000    -2.367000000
H     5.214000000     5.567000000    -3.587000000
O    -1.526000000    -3.888000000    -2.353000000
H    -1.908000000    -4.690000000    -1.996000000
H    -2.277000000    -3.386000000    -2.670000000
O    -5.216000000     1.254000000    -0.012000000
H    -4.667000000     1.711000000    -0.649000000
H    -5.689000000     1.951000000     0.442000000
O     3.475000000    -3.854000000    -4.315000000
H     3.788000000    -3.221000000    -3.668000000
H     3.760000000    -4.703000000    -3.977000000
O    -7.748000000     0.004000000     1.289000000
H    -7.035000000     0.442000000     0.824000000
H    -7.983000000    -0.733000000     0.726000000
O     2.255000000    -0.614000000     4.076000000
H     1.974000000    -1.506000000     3.873000000
H     3.072000000    -0.503000000     3.589000000
O     3.470000000    -5.283000000     1.986000000
H     3.965000000    -4.705000000     2.567000000
H     3.358000000    -4.776000000     1.182000000
O     1.501000000    -0.381000000    -6.829000000
H     1.418000000    -1.313000000    -7.030000000
H     1.689000000    -0.355000000    -5.890000000
O     4.549000000    -1.978000000    -2.588000000
H     3.998000000    -1.527000000    -3.227000000
H     5.429000000    -1.638000000    -2.747000000
O    -1.105000000     2.958000000     1.667000000
H    -1.055000000     2.787000000     2.608000000
H    -0.763000000     2.162000000     1.260000000
O    -4.406000000    -1.625000000     1.346000000
H    -4.174000000    -1.951000000     0.476000000
H    -5.308000000    -1.318000000     1.255000000
