158
-3015.68034
C     1.481000000    -0.171000000     0.069000000
H     2.549000000    -0.268000000    -0.107000000
C     0.608000000    -0.782000000    -0.837000000
H     1.060000000    -1.353000000    -1.643000000
C    -0.779000000    -0.741000000    -0.644000000
H    -1.422000000    -1.236000000    -1.379000000
C    -1.265000000     0.181000000     0.239000000
H    -2.345000000     0.286000000     0.300000000
C    -0.430000000     0.922000000     1.086000000
H    -0.829000000     1.636000000     1.801000000
C     0.970000000     0.771000000     0.947000000
C     1.860000000     1.715000000     1.769000000
O     1.397000000     2.741000000     2.189000000
O     3.073000000     1.507000000     1.769000000
O     3.232000000     5.258000000    -1.222000000
H     2.529000000     5.239000000    -0.572000000
H     3.251000000     4.370000000    -1.580000000
O     5.490000000     3.355000000     3.191000000
H     4.607000000     3.713000000     3.283000000
H     5.366000000     2.406000000     3.201000000
O    -3.942000000    -2.605000000    -0.294000000
H    -4.692000000    -3.067000000    -0.669000000
H    -3.196000000    -3.180000000    -0.466000000
O     0.714000000    -2.269000000    -4.634000000
H     1.026000000    -1.970000000    -5.488000000
H     1.449000000    -2.762000000    -4.270000000
O     3.111000000     4.444000000     3.221000000
H     2.378000000     5.057000000     3.166000000
H     2.791000000     3.649000000     2.795000000
O    -1.866000000    -5.286000000    -3.120000000
H    -1.578000000    -5.148000000    -2.218000000
H    -2.004000000    -6.231000000    -3.185000000
O     0.251000000     0.669000000    -3.900000000
H     0.197000000    -0.167000000    -3.437000000
H    -0.146000000     1.301000000    -3.301000000
O    -4.700000000     2.171000000     4.031000000
H    -4.017000000     1.515000000     4.168000000
H    -4.471000000     2.585000000     3.199000000
O     2.120000000    -2.564000000     2.896000000
H     1.355000000    -3.060000000     2.606000000
H     1.760000000    -1.866000000     3.443000000
O     3.119000000    -1.329000000    -6.206000000
H     3.405000000    -0.996000000    -5.355000000
H     3.815000000    -1.929000000    -6.475000000
O    -6.790000000    -0.790000000     0.921000000
H    -6.756000000     0.102000000     1.265000000
H    -6.548000000    -0.700000000    -0.001000000
O    -3.498000000    -3.426000000    -5.992000000
H    -2.847000000    -3.295000000    -5.302000000
H    -4.087000000    -4.094000000    -5.640000000
O    -0.178000000     3.266000000     5.682000000
H     0.122000000     3.898000000     6.335000000
H    -0.406000000     3.799000000     4.920000000
O     0.549000000    -1.060000000     4.636000000
H     0.810000000    -0.255000000     5.083000000
H    -0.347000000    -1.219000000     4.933000000
O    -3.498000000     3.489000000    -0.958000000
H    -3.304000000     3.273000000    -1.870000000
H    -2.743000000     4.000000000    -0.667000000
O     4.255000000    -2.248000000     0.897000000
H     4.363000000    -1.463000000     1.434000000
H     3.457000000    -2.658000000     1.231000000
O     6.246000000    -3.361000000    -0.752000000
H     6.093000000    -4.207000000    -1.172000000
H     5.485000000    -3.232000000    -0.186000000
O     0.509000000    -4.383000000    -1.496000000
H     1.293000000    -3.900000000    -1.758000000
H     0.771000000    -5.303000000    -1.530000000
O    -3.801000000     3.353000000    -3.938000000
H    -4.151000000     4.122000000    -4.388000000
H    -3.550000000     2.756000000    -4.643000000
O    -3.361000000    -5.975000000     1.074000000
H    -3.106000000    -5.565000000     1.900000000
H    -2.954000000    -5.429000000     0.400000000
O     2.520000000     2.893000000    -2.642000000
H     1.635000000     2.576000000    -2.461000000
H     3.038000000     2.597000000    -1.893000000
O     7.336000000     1.208000000    -0.646000000
H     6.561000000     0.648000000    -0.618000000
H     7.733000000     1.026000000    -1.498000000
O    -2.827000000     0.174000000     4.023000000
H    -3.296000000    -0.286000000     3.327000000
H    -2.515000000    -0.521000000     4.602000000
O    -4.455000000     3.630000000     1.621000000
H    -4.252000000     3.797000000     0.701000000
H    -4.473000000     4.499000000     2.023000000
O     2.837000000     1.521000000    -5.041000000
H     3.005000000     2.068000000    -4.274000000
H     1.990000000     1.112000000    -4.862000000
O    -1.918000000    -2.737000000    -3.639000000
H    -1.070000000    -2.556000000    -4.045000000
H    -1.860000000    -3.653000000    -3.364000000
O    -3.078000000     1.268000000    -5.983000000
H    -3.558000000     0.528000000    -6.354000000
H    -3.005000000     1.892000000    -6.705000000
O     3.654000000     0.335000000     4.980000000
H     3.491000000    -0.399000000     5.573000000
H     2.880000000     0.891000000     5.069000000
O     0.040000000     2.258000000    -1.775000000
H    -0.108000000     1.406000000    -1.365000000
H     0.026000000     2.880000000    -1.048000000
O     6.289000000     0.689000000     5.149000000
H     5.339000000     0.578000000     5.146000000
H     6.428000000     1.565000000     5.507000000
O     1.189000000     4.900000000     0.737000000
H     1.671000000     5.503000000     1.302000000
H     1.320000000     4.040000000     1.137000000
O     5.253000000     0.245000000     2.502000000
H     4.954000000     0.047000000     3.390000000
H     4.605000000     0.863000000     2.164000000
O    -0.488000000     0.600000000    -6.461000000
H    -1.405000000     0.865000000    -6.392000000
H    -0.166000000     0.616000000    -5.560000000
O    -4.024000000    -0.926000000     1.933000000
H    -4.844000000    -0.555000000     1.607000000
H    -3.783000000    -1.584000000     1.280000000
O     1.375000000     1.204000000     5.859000000
H     1.941000000     1.224000000     6.631000000
H     0.786000000     1.950000000     5.974000000
O    -1.635000000    -4.039000000     0.031000000
H    -0.851000000    -4.323000000    -0.440000000
H    -1.306000000    -3.447000000     0.708000000
O    -2.302000000    -4.440000000     3.080000000
H    -2.824000000    -4.270000000     3.864000000
H    -1.949000000    -3.584000000     2.837000000
O    -0.902000000    -2.106000000     2.019000000
H    -0.829000000    -1.618000000     2.839000000
H    -0.533000000    -1.521000000     1.358000000
O     5.537000000    -0.306000000    -1.674000000
H     5.556000000    -0.614000000    -2.580000000
H     5.106000000    -1.011000000    -1.191000000
O     4.071000000     2.162000000    -0.658000000
H     4.668000000     1.438000000    -0.848000000
H     3.798000000     2.015000000     0.248000000
O    -6.559000000     1.801000000     1.577000000
H    -5.752000000     2.245000000     1.315000000
H    -6.741000000     2.133000000     2.456000000
O     2.755000000    -3.608000000    -3.423000000
H     2.908000000    -4.052000000    -4.257000000
H     3.403000000    -3.986000000    -2.828000000
O     1.515000000     6.542000000     2.984000000
H     1.251000000     7.458000000     2.898000000
H     0.709000000     6.082000000     3.219000000
O    -4.680000000    -2.425000000    -3.392000000
H    -4.862000000    -3.334000000    -3.630000000
H    -3.738000000    -2.325000000    -3.529000000
O    -6.695000000    -1.133000000    -2.207000000
H    -5.774000000    -1.266000000    -2.432000000
H    -7.125000000    -1.946000000    -2.470000000
O    -1.456000000     5.288000000     0.065000000
H    -1.715000000     6.178000000     0.305000000
H    -0.508000000     5.272000000     0.194000000
O    -0.542000000     4.543000000     3.226000000
H    -1.338000000     4.358000000     2.727000000
H     0.112000000     3.945000000     2.863000000
O    -6.392000000     1.882000000    -3.416000000
H    -5.468000000     2.124000000    -3.364000000
H    -6.418000000     1.176000000    -4.062000000
