158
-3006.03507
C     0.046000000    -0.992000000     1.149000000
H    -0.113000000    -1.782000000     1.879000000
C     0.191000000    -1.366000000    -0.176000000
H     0.133000000    -2.396000000    -0.519000000
C     0.337000000    -0.314000000    -1.134000000
H     0.532000000    -0.512000000    -2.127000000
C     0.219000000     1.065000000    -0.741000000
H     0.316000000     1.879000000    -1.454000000
C    -0.121000000     1.361000000     0.520000000
H    -0.217000000     2.371000000     0.908000000
C    -0.173000000     0.359000000     1.500000000
C    -0.436000000     0.751000000     2.905000000
O    -0.657000000    -0.121000000     3.747000000
O    -0.701000000     1.871000000     3.135000000
O    -1.334000000     6.175000000     0.634000000
H    -0.438000000     6.485000000     0.502000000
H    -1.816000000     6.951000000     0.919000000
O    -4.011000000    -0.667000000    -4.852000000
H    -3.524000000    -1.270000000    -5.413000000
H    -4.574000000    -1.232000000    -4.324000000
O     1.951000000    -4.703000000    -4.141000000
H     1.061000000    -5.025000000    -3.996000000
H     1.849000000    -3.757000000    -4.247000000
O     2.918000000     4.561000000     0.882000000
H     2.397000000     4.145000000     1.569000000
H     2.436000000     5.360000000     0.667000000
O     3.096000000     2.499000000    -6.077000000
H     2.542000000     3.042000000    -5.517000000
H     2.733000000     1.618000000    -5.991000000
O     0.945000000    -4.059000000     6.929000000
H     1.454000000    -4.501000000     6.250000000
H     0.487000000    -3.357000000     6.466000000
O    -3.243000000     3.262000000     3.484000000
H    -3.467000000     3.417000000     2.566000000
H    -2.375000000     2.860000000     3.454000000
O     1.896000000     0.562000000     5.827000000
H     1.962000000     1.366000000     5.312000000
H     0.990000000     0.276000000     5.708000000
O     2.266000000     0.070000000     8.393000000
H     2.882000000    -0.640000000     8.573000000
H     2.252000000     0.139000000     7.438000000
O     2.147000000     2.922000000     4.322000000
H     2.921000000     3.384000000     4.000000000
H     1.457000000     3.147000000     3.697000000
O    -1.325000000     0.680000000     6.435000000
H    -1.515000000     0.468000000     5.522000000
H    -2.084000000     1.186000000     6.727000000
O    -2.142000000    -2.477000000    -3.367000000
H    -2.491000000    -1.585000000    -3.369000000
H    -2.903000000    -3.031000000    -3.195000000
O     2.284000000     4.127000000     6.812000000
H     1.450000000     3.731000000     7.065000000
H     2.515000000     3.695000000     5.990000000
O     0.382000000     4.203000000     2.651000000
H     0.008000000     3.343000000     2.845000000
H    -0.368000000     4.738000000     2.391000000
O    -5.413000000     2.268000000     4.797000000
H    -4.876000000     2.729000000     4.152000000
H    -6.138000000     2.867000000     4.976000000
O    -3.486000000    -3.332000000    -0.595000000
H    -2.995000000    -3.888000000     0.010000000
H    -4.402000000    -3.571000000    -0.448000000
O     2.735000000     3.273000000    -1.898000000
H     3.393000000     3.787000000    -2.366000000
H     2.455000000     3.839000000    -1.180000000
O     0.724000000    -5.577000000    -0.122000000
H     0.602000000    -6.140000000    -0.886000000
H     0.443000000    -6.113000000     0.619000000
O     2.621000000    -1.230000000     3.638000000
H     1.954000000    -1.871000000     3.885000000
H     2.593000000    -0.575000000     4.336000000
O    -2.535000000    -2.429000000    -6.667000000
H    -1.725000000    -2.830000000    -6.983000000
H    -2.993000000    -3.139000000    -6.218000000
O    -0.304000000     0.694000000    -7.656000000
H    -0.126000000     1.633000000    -7.614000000
H    -0.708000000     0.489000000    -6.813000000
O    -2.874000000     4.420000000     6.097000000
H    -3.451000000     3.758000000     6.477000000
H    -2.723000000     4.119000000     5.201000000
O    -3.632000000     1.899000000    -4.267000000
H    -3.547000000     0.978000000    -4.512000000
H    -3.676000000     2.366000000    -5.101000000
O    -3.095000000    -0.456000000    -0.616000000
H    -2.396000000    -0.072000000    -0.087000000
H    -2.797000000    -1.348000000    -0.796000000
O    -4.380000000    -2.273000000     3.065000000
H    -5.072000000    -2.617000000     3.630000000
H    -3.957000000    -1.595000000     3.591000000
O     1.724000000    -6.001000000     3.729000000
H     2.334000000    -5.779000000     4.432000000
H     1.851000000    -5.313000000     3.075000000
O    -1.042000000    -5.131000000    -3.726000000
H    -1.409000000    -4.266000000    -3.909000000
H    -1.806000000    -5.691000000    -3.589000000
O    -0.729000000     0.748000000    -4.795000000
H    -0.981000000     0.472000000    -3.914000000
H    -0.384000000     1.633000000    -4.679000000
O    -2.322000000    -3.205000000     6.087000000
H    -3.244000000    -3.446000000     6.175000000
H    -1.866000000    -4.039000000     5.978000000
O     2.393000000     6.343000000     3.434000000
H     2.370000000     7.271000000     3.200000000
H     1.501000000     6.034000000     3.274000000
O     0.843000000    -2.402000000    -6.942000000
H     0.092000000    -2.580000000    -7.507000000
H     0.988000000    -1.460000000    -7.025000000
O     2.810000000    -2.562000000    -1.912000000
H     2.152000000    -2.971000000    -2.475000000
H     2.308000000    -1.979000000    -1.343000000
O     1.995000000    -4.181000000     1.605000000
H     2.389000000    -3.410000000     1.198000000
H     1.579000000    -4.648000000     0.880000000
O    -3.204000000     3.782000000     0.641000000
H    -2.797000000     3.251000000    -0.044000000
H    -2.563000000     4.469000000     0.824000000
O     5.210000000    -1.544000000    -2.888000000
H     4.436000000    -2.072000000    -2.694000000
H     4.967000000    -0.657000000    -2.623000000
O     0.068000000    -2.232000000     5.365000000
H    -0.104000000    -1.525000000     4.743000000
H    -0.783000000    -2.410000000     5.766000000
O    -2.319000000     2.885000000    -1.798000000
H    -2.609000000     1.992000000    -1.981000000
H    -2.178000000     3.273000000    -2.662000000
O     4.614000000    -4.841000000    -3.725000000
H     4.968000000    -3.966000000    -3.567000000
H     3.676000000    -4.702000000    -3.849000000
O    -5.325000000    -1.032000000     0.922000000
H    -5.032000000    -1.352000000     1.775000000
H    -4.538000000    -0.663000000     0.521000000
O     2.734000000    -0.635000000    -5.217000000
H     1.902000000    -0.983000000    -4.897000000
H     3.161000000    -0.281000000    -4.437000000
O     3.888000000    -1.856000000     1.226000000
H     3.610000000    -1.200000000     0.587000000
H     3.681000000    -1.466000000     2.076000000
O    -0.764000000    -5.153000000     2.654000000
H    -0.260000000    -4.454000000     2.239000000
H    -0.135000000    -5.598000000     3.222000000
O    -3.319000000    -4.488000000     1.939000000
H    -2.363000000    -4.493000000     1.992000000
H    -3.584000000    -3.733000000     2.465000000
O     3.303000000     0.790000000    -2.714000000
H     4.083000000     0.933000000    -2.179000000
H     2.667000000     1.426000000    -2.386000000
O     0.612000000    -2.425000000    -4.053000000
H    -0.217000000    -2.610000000    -3.612000000
H     0.447000000    -2.637000000    -4.972000000
O     0.475000000     2.170000000     8.316000000
H     1.119000000     1.508000000     8.568000000
H    -0.114000000     1.715000000     7.716000000
O     0.700000000     2.944000000    -3.692000000
H     0.849000000     3.671000000    -4.297000000
H     1.354000000     3.068000000    -3.003000000
O    -3.273000000    -0.057000000     4.205000000
H    -3.526000000     0.782000000     4.590000000
H    -2.428000000     0.114000000     3.790000000
