158
-3038.98067
C     0.677000000    -1.115000000     0.795000000
H     1.268000000    -1.916000000     1.233000000
C     0.464000000    -1.082000000    -0.575000000
H     0.777000000    -1.969000000    -1.121000000
C    -0.186000000    -0.057000000    -1.179000000
H    -0.439000000    -0.225000000    -2.184000000
C    -0.559000000     1.014000000    -0.474000000
H    -0.929000000     1.911000000    -0.963000000
C    -0.251000000     1.098000000     0.888000000
H    -0.495000000     2.051000000     1.351000000
C     0.299000000    -0.005000000     1.534000000
C     0.541000000     0.036000000     3.000000000
O     0.899000000    -0.941000000     3.630000000
O     0.192000000     1.010000000     3.655000000
O     0.530000000     4.268000000    -1.103000000
H     1.132000000     3.753000000    -0.567000000
H    -0.272000000     4.318000000    -0.583000000
O     2.758000000    -4.057000000    -1.273000000
H     2.470000000    -4.967000000    -1.346000000
H     2.506000000    -3.658000000    -2.106000000
O     2.653000000     3.426000000     0.485000000
H     2.520000000     2.485000000     0.373000000
H     2.531000000     3.575000000     1.423000000
O    -1.558000000     4.422000000     7.161000000
H    -1.045000000     5.099000000     7.602000000
H    -0.905000000     3.807000000     6.826000000
O     0.572000000     6.877000000     1.600000000
H     0.267000000     7.767000000     1.774000000
H    -0.192000000     6.428000000     1.239000000
O    -2.951000000     2.560000000    -4.610000000
H    -3.181000000     2.208000000    -3.750000000
H    -2.362000000     3.290000000    -4.420000000
O     6.206000000    -1.945000000     1.700000000
H     5.912000000    -2.061000000     0.797000000
H     5.906000000    -1.068000000     1.940000000
O    -4.172000000     0.547000000    -6.344000000
H    -4.990000000     0.348000000    -5.889000000
H    -3.826000000     1.316000000    -5.892000000
O     4.744000000     0.442000000     5.134000000
H     5.308000000    -0.185000000     4.681000000
H     5.341000000     1.130000000     5.430000000
O    -6.490000000    -0.477000000    -1.029000000
H    -6.904000000     0.339000000    -0.748000000
H    -5.647000000    -0.205000000    -1.391000000
O    -1.255000000     3.552000000     3.456000000
H    -0.906000000     2.682000000     3.651000000
H    -0.928000000     4.106000000     4.165000000
O    -3.239000000     2.412000000     1.457000000
H    -4.125000000     2.768000000     1.527000000
H    -2.880000000     2.489000000     2.341000000
O     3.279000000    -2.033000000     4.443000000
H     3.465000000    -1.547000000     5.246000000
H     2.484000000    -1.629000000     4.096000000
O     3.291000000     1.065000000     7.249000000
H     3.735000000     0.876000000     6.423000000
H     2.398000000     0.746000000     7.120000000
O    -6.216000000     2.189000000    -3.309000000
H    -5.408000000     2.543000000    -2.937000000
H    -6.897000000     2.440000000    -2.685000000
O     0.852000000    -2.321000000     6.701000000
H     0.481000000    -2.506000000     5.839000000
H     0.993000000    -1.374000000     6.703000000
O    -0.426000000    -2.463000000    -3.975000000
H    -0.732000000    -2.169000000    -4.833000000
H    -1.203000000    -2.427000000    -3.418000000
O    -0.383000000     3.940000000    -3.670000000
H    -0.118000000     3.737000000    -2.773000000
H     0.171000000     4.678000000    -3.922000000
O     0.578000000     0.560000000     6.332000000
H     0.425000000     0.424000000     5.397000000
H     0.410000000     1.493000000     6.469000000
O    -0.993000000    -5.767000000    -1.191000000
H    -0.395000000    -5.625000000    -0.457000000
H    -1.865000000    -5.745000000    -0.797000000
O     1.009000000    -5.245000000     0.766000000
H     1.173000000    -5.039000000     1.686000000
H     1.755000000    -4.869000000     0.299000000
O    -0.828000000     1.729000000    -6.750000000
H    -0.530000000     2.563000000    -7.113000000
H    -1.667000000     1.933000000    -6.337000000
O     4.040000000    -4.401000000     2.708000000
H     3.109000000    -4.612000000     2.775000000
H     4.079000000    -3.452000000     2.831000000
O    -2.451000000    -1.523000000    -6.413000000
H    -3.018000000    -2.290000000    -6.335000000
H    -3.053000000    -0.780000000    -6.425000000
O     0.219000000    -0.709000000    -6.941000000
H    -0.688000000    -1.014000000    -6.938000000
H     0.151000000     0.243000000    -6.872000000
O    -0.521000000    -3.012000000     4.222000000
H    -1.148000000    -3.204000000     3.525000000
H    -0.167000000    -2.152000000     3.995000000
O    -4.021000000     1.027000000    -1.336000000
H    -3.569000000     0.799000000    -0.524000000
H    -4.016000000     1.984000000    -1.352000000
O     0.878000000    -5.300000000    -3.708000000
H     0.167000000    -5.380000000    -3.072000000
H     1.121000000    -4.374000000    -3.680000000
O     2.420000000     2.436000000     3.170000000
H     2.752000000     2.982000000     3.882000000
H     1.756000000     1.883000000     3.582000000
O     3.694000000    -3.081000000     7.496000000
H     3.658000000    -2.924000000     8.440000000
H     2.781000000    -3.036000000     7.211000000
O     5.472000000    -2.483000000    -0.888000000
H     4.585000000    -2.835000000    -0.967000000
H     5.400000000    -1.581000000    -1.202000000
O     1.065000000     1.849000000    -4.639000000
H     0.656000000     1.674000000    -5.487000000
H     0.526000000     2.539000000    -4.251000000
O    -3.056000000    -0.196000000     2.271000000
H    -2.876000000    -0.775000000     1.531000000
H    -3.056000000     0.684000000     1.893000000
O    -3.924000000     3.676000000    -1.471000000
H    -3.145000000     3.944000000    -0.983000000
H    -4.466000000     4.463000000    -1.508000000
O     0.969000000     3.561000000     6.088000000
H     0.946000000     4.333000000     5.522000000
H     1.348000000     3.876000000     6.909000000
O    -2.386000000    -1.751000000     0.179000000
H    -2.577000000    -2.360000000    -0.534000000
H    -1.581000000    -1.310000000    -0.092000000
O     3.582000000    -0.844000000    -5.443000000
H     2.689000000    -0.909000000    -5.783000000
H     3.646000000     0.052000000    -5.110000000
O     2.951000000     0.801000000    -0.167000000
H     3.496000000     0.750000000    -0.952000000
H     2.226000000     0.201000000    -0.340000000
O     1.477000000    -5.021000000     3.733000000
H     0.792000000    -4.356000000     3.790000000
H     1.359000000    -5.555000000     4.519000000
O     4.958000000     0.589000000     1.944000000
H     4.221000000     0.360000000     1.379000000
H     4.583000000     1.174000000     2.603000000
O    -4.466000000     2.856000000     4.830000000
H    -4.261000000     3.678000000     5.273000000
H    -3.656000000     2.349000000     4.876000000
O    -2.480000000     1.496000000     7.626000000
H    -2.198000000     2.278000000     7.152000000
H    -2.704000000     0.867000000     6.940000000
O     2.357000000    -2.745000000    -3.536000000
H     1.432000000    -2.541000000    -3.675000000
H     2.769000000    -2.578000000    -4.383000000
O     3.676000000     1.366000000    -4.091000000
H     2.725000000     1.445000000    -4.170000000
H     3.967000000     2.239000000    -3.827000000
O    -2.385000000     0.887000000     4.621000000
H    -1.467000000     0.677000000     4.449000000
H    -2.878000000     0.250000000     4.103000000
O    -1.432000000     4.744000000     0.835000000
H    -1.327000000     4.182000000     1.603000000
H    -2.072000000     5.402000000     1.105000000
O    -2.441000000    -3.312000000     2.403000000
H    -3.390000000    -3.196000000     2.440000000
H    -2.187000000    -2.939000000     1.559000000
O    -2.796000000    -3.525000000    -1.923000000
H    -3.296000000    -3.620000000    -2.733000000
H    -2.443000000    -4.399000000    -1.754000000
