158
-3041.22456
C    -0.196000000    -1.025000000     1.099000000
H    -0.299000000    -1.782000000     1.873000000
C     0.074000000    -1.364000000    -0.273000000
H     0.184000000    -2.402000000    -0.574000000
C     0.261000000    -0.313000000    -1.192000000
H     0.579000000    -0.460000000    -2.315000000
C     0.018000000     1.022000000    -0.791000000
H     0.070000000     1.866000000    -1.472000000
C    -0.309000000     1.296000000     0.554000000
H    -0.584000000     2.331000000     0.744000000
C    -0.351000000     0.268000000     1.521000000
C    -0.584000000     0.679000000     2.991000000
O    -0.812000000    -0.200000000     3.800000000
O    -0.896000000     1.767000000     3.318000000
O    -0.127000000    -3.063000000    -5.069000000
H     0.479000000    -2.520000000    -4.564000000
H     0.149000000    -2.947000000    -5.978000000
O     2.858000000     1.579000000     3.229000000
H     2.076000000     2.081000000     3.002000000
H     3.478000000     2.234000000     3.551000000
O    -0.655000000     6.002000000     1.895000000
H    -1.575000000     6.194000000     1.714000000
H    -0.278000000     5.806000000     1.037000000
O    -1.715000000    -1.510000000     5.820000000
H    -2.420000000    -1.006000000     6.225000000
H    -1.287000000    -0.890000000     5.229000000
O     1.088000000     3.731000000     2.748000000
H     0.998000000     4.676000000     2.876000000
H     0.221000000     3.378000000     2.949000000
O    -0.385000000     0.887000000    -6.464000000
H     0.477000000     0.473000000    -6.420000000
H    -0.964000000     0.285000000    -5.997000000
O     2.252000000     2.816000000    -6.484000000
H     1.406000000     3.264000000    -6.482000000
H     2.893000000     3.515000000    -6.352000000
O     2.054000000    -0.378000000     7.515000000
H     1.946000000    -0.270000000     6.570000000
H     2.443000000     0.447000000     7.807000000
O     1.113000000    -5.022000000     2.335000000
H     0.562000000    -5.698000000     1.940000000
H     0.545000000    -4.595000000     2.977000000
O     3.233000000    -0.329000000     0.680000000
H     3.091000000     0.151000000     1.496000000
H     3.088000000    -1.246000000     0.914000000
O    -0.036000000     4.505000000     6.558000000
H    -0.892000000     4.651000000     6.961000000
H     0.050000000     5.209000000     5.915000000
O    -3.628000000     4.593000000     6.271000000
H    -3.330000000     3.761000000     5.904000000
H    -3.293000000     5.255000000     5.667000000
O     0.917000000    -2.611000000     4.586000000
H     0.271000000    -1.913000000     4.477000000
H     0.598000000    -3.118000000     5.334000000
O    -2.092000000     2.174000000     5.596000000
H    -2.912000000     2.039000000     5.121000000
H    -1.410000000     2.053000000     4.935000000
O     1.130000000     1.837000000     5.509000000
H     0.701000000     1.537000000     4.708000000
H     0.638000000     2.616000000     5.767000000
O     5.450000000    -0.855000000    -0.854000000
H     4.582000000    -0.516000000    -0.639000000
H     5.653000000    -0.470000000    -1.707000000
O    -4.972000000     1.548000000     4.496000000
H    -5.632000000     1.787000000     3.845000000
H    -5.474000000     1.171000000     5.219000000
O    -3.185000000     0.285000000    -0.473000000
H    -2.239000000     0.432000000    -0.503000000
H    -3.278000000    -0.608000000    -0.142000000
O    -1.001000000     2.323000000     8.097000000
H    -1.276000000     2.295000000     7.181000000
H    -0.742000000     1.423000000     8.297000000
O    -1.530000000    -5.599000000    -5.320000000
H    -0.959000000    -4.832000000    -5.271000000
H    -1.398000000    -6.049000000    -4.485000000
O    -3.987000000    -3.107000000    -4.268000000
H    -3.309000000    -3.747000000    -4.053000000
H    -4.410000000    -2.917000000    -3.431000000
O     5.109000000     1.747000000     0.103000000
H     4.401000000     2.006000000    -0.487000000
H     4.826000000     0.906000000     0.462000000
O    -3.443000000     5.805000000     1.896000000
H    -3.409000000     6.509000000     2.544000000
H    -3.249000000     5.012000000     2.395000000
O    -3.280000000    -2.690000000    -0.319000000
H    -2.654000000    -3.012000000    -0.967000000
H    -3.431000000    -3.436000000     0.261000000
O     0.291000000     6.086000000    -0.715000000
H     0.733000000     5.305000000    -1.046000000
H    -0.484000000     6.176000000    -1.269000000
O    -0.076000000    -6.612000000     0.442000000
H    -1.013000000    -6.807000000     0.457000000
H     0.306000000    -7.312000000    -0.089000000
O    -3.355000000     2.990000000     2.812000000
H    -4.001000000     2.696000000     3.454000000
H    -2.556000000     2.514000000     3.040000000
O    -4.225000000    -0.356000000    -3.087000000
H    -4.074000000     0.478000000    -3.532000000
H    -3.958000000    -0.196000000    -2.182000000
O     3.836000000     0.402000000    -5.215000000
H     3.450000000     1.268000000    -5.342000000
H     4.722000000     0.480000000    -5.570000000
O    -2.212000000     4.971000000    -2.130000000
H    -1.619000000     4.498000000    -2.713000000
H    -2.245000000     5.858000000    -2.490000000
O     2.136000000    -0.316000000    -7.289000000
H     2.792000000    -0.666000000    -7.891000000
H     2.538000000    -0.393000000    -6.424000000
O    -0.297000000     3.778000000    -6.194000000
H    -0.504000000     2.853000000    -6.064000000
H    -1.120000000     4.170000000    -6.487000000
O     3.810000000    -3.575000000    -1.852000000
H     3.274000000    -4.187000000    -1.347000000
H     4.430000000    -3.218000000    -1.216000000
O    -0.465000000    -0.894000000     8.371000000
H     0.415000000    -0.712000000     8.041000000
H    -0.825000000    -1.532000000     7.755000000
O     2.546000000     4.273000000    -1.713000000
H     3.369000000     4.621000000    -2.056000000
H     2.738000000     3.357000000    -1.512000000
O     3.208000000    -0.903000000     4.178000000
H     2.408000000    -1.409000000     4.044000000
H     2.953000000     0.002000000     3.998000000
O    -1.510000000    -5.573000000     3.973000000
H    -2.152000000    -4.868000000     3.886000000
H    -2.025000000    -6.332000000     4.248000000
O     0.020000000     3.737000000    -3.347000000
H     0.184000000     3.441000000    -4.242000000
H     0.875000000     3.695000000    -2.920000000
O     2.219000000    -1.757000000    -3.757000000
H     3.004000000    -1.299000000    -4.058000000
H     2.541000000    -2.601000000    -3.442000000
O    -2.185000000    -2.827000000     3.200000000
H    -1.774000000    -2.156000000     2.655000000
H    -1.994000000    -2.557000000     4.098000000
O     2.107000000    -5.378000000    -0.615000000
H     1.369000000    -5.691000000    -0.092000000
H     1.937000000    -5.713000000    -1.495000000
O    -1.776000000    -3.774000000    -2.509000000
H    -0.969000000    -3.421000000    -2.882000000
H    -1.584000000    -4.699000000    -2.356000000
O     3.161000000     1.659000000    -1.892000000
H     2.944000000     0.873000000    -1.391000000
H     2.974000000     1.423000000    -2.801000000
O    -4.257000000    -4.064000000     1.846000000
H    -4.940000000    -3.394000000     1.822000000
H    -3.491000000    -3.614000000     2.203000000
O     2.704000000    -3.132000000     1.175000000
H     2.636000000    -3.703000000     0.410000000
H     2.170000000    -3.562000000     1.843000000
O    -1.936000000    -0.926000000    -5.085000000
H    -1.633000000    -1.833000000    -5.130000000
H    -2.636000000    -0.939000000    -4.432000000
O     5.145000000    -2.932000000    -4.264000000
H     4.834000000    -3.212000000    -3.403000000
H     5.709000000    -2.181000000    -4.082000000
O    -5.147000000     2.442000000     0.484000000
H    -4.622000000     2.965000000     1.089000000
H    -4.510000000     1.894000000     0.025000000
