158
-3025.02487
C    -0.222000000    -1.297000000     0.595000000
H    -0.229000000    -2.306000000     0.999000000
C     0.073000000    -1.082000000    -0.729000000
H     0.148000000    -2.005000000    -1.299000000
C     0.294000000     0.232000000    -1.167000000
H     0.497000000     0.560000000    -2.206000000
C     0.097000000     1.300000000    -0.296000000
H     0.243000000     2.316000000    -0.654000000
C    -0.214000000     1.046000000     1.012000000
H    -0.411000000     1.875000000     1.687000000
C    -0.410000000    -0.241000000     1.479000000
C    -0.705000000    -0.560000000     2.960000000
O    -0.515000000    -1.680000000     3.339000000
O    -0.953000000     0.334000000     3.705000000
O     4.705000000    -0.226000000     3.125000000
H     4.356000000     0.158000000     3.929000000
H     3.945000000    -0.304000000     2.548000000
O    -2.479000000     5.256000000    -0.461000000
H    -1.529000000     5.142000000    -0.485000000
H    -2.709000000     5.158000000     0.463000000
O    -4.736000000    -0.744000000     1.817000000
H    -5.471000000    -0.141000000     1.928000000
H    -4.187000000    -0.333000000     1.149000000
O     0.445000000     5.140000000     1.942000000
H    -0.422000000     5.386000000     2.267000000
H     0.410000000     5.323000000     1.004000000
O    -0.870000000    -2.639000000     5.796000000
H    -1.658000000    -2.255000000     6.181000000
H    -0.625000000    -2.033000000     5.098000000
O     2.457000000     2.360000000     2.814000000
H     2.068000000     3.052000000     2.279000000
H     2.250000000     1.551000000     2.346000000
O     1.097000000    -1.277000000    -4.403000000
H     0.248000000    -1.671000000    -4.205000000
H     1.641000000    -1.484000000    -3.643000000
O     3.585000000     1.454000000    -5.505000000
H     2.631000000     1.514000000    -5.547000000
H     3.889000000     1.912000000    -6.288000000
O     1.260000000    -0.141000000     5.400000000
H     0.736000000    -0.212000000     4.602000000
H     1.114000000     0.756000000     5.703000000
O    -0.591000000    -5.527000000     5.711000000
H    -0.792000000    -6.105000000     4.974000000
H    -1.081000000    -4.726000000     5.528000000
O     2.608000000    -0.146000000     1.349000000
H     1.789000000    -0.088000000     0.858000000
H     2.779000000    -1.085000000     1.419000000
O    -1.846000000     5.215000000     5.127000000
H    -1.649000000     4.600000000     4.421000000
H    -1.810000000     6.077000000     4.711000000
O    -2.682000000     2.452000000    -5.019000000
H    -2.382000000     3.311000000    -4.723000000
H    -2.996000000     2.602000000    -5.911000000
O     1.725000000    -3.169000000     3.730000000
H     0.907000000    -2.691000000     3.597000000
H     1.714000000    -3.409000000     4.657000000
O    -2.338000000     0.350000000     5.915000000
H    -2.967000000    -0.226000000     5.480000000
H    -1.550000000     0.297000000     5.374000000
O     0.516000000     2.715000000     5.549000000
H    -0.331000000     3.034000000     5.236000000
H     1.084000000     2.750000000     4.780000000
O    -4.326000000    -1.065000000     4.632000000
H    -4.255000000    -0.944000000     3.685000000
H    -5.167000000    -0.670000000     4.862000000
O    -2.871000000    -1.385000000    -2.092000000
H    -2.100000000    -1.764000000    -2.517000000
H    -3.313000000    -2.132000000    -1.690000000
O    -0.799000000     2.503000000     8.195000000
H    -0.507000000     2.793000000     7.331000000
H    -0.048000000     2.034000000     8.557000000
O     5.092000000     1.558000000    -0.470000000
H     4.465000000     0.918000000    -0.134000000
H     5.919000000     1.329000000    -0.045000000
O    -2.712000000     5.090000000     2.334000000
H    -3.318000000     5.704000000     2.747000000
H    -2.920000000     4.244000000     2.731000000
O    -3.456000000    -4.182000000    -1.811000000
H    -3.281000000    -4.863000000    -2.461000000
H    -3.095000000    -4.530000000    -0.996000000
O     0.345000000     5.445000000    -0.816000000
H     1.015000000     5.002000000    -1.337000000
H     0.079000000     6.191000000    -1.354000000
O    -1.846000000     2.794000000     3.920000000
H    -2.453000000     2.439000000     4.568000000
H    -1.272000000     2.060000000     3.701000000
O    -3.901000000     0.186000000    -3.922000000
H    -3.699000000     1.119000000    -3.861000000
H    -3.293000000    -0.232000000    -3.312000000
O     4.498000000    -0.899000000    -4.552000000
H     4.320000000     0.009000000    -4.796000000
H     5.428000000    -1.021000000    -4.742000000
O    -1.882000000     5.179000000    -4.605000000
H    -1.053000000     4.770000000    -4.356000000
H    -1.634000000     6.045000000    -4.930000000
O     2.896000000    -2.267000000    -6.920000000
H     3.768000000    -2.263000000    -7.316000000
H     3.004000000    -1.786000000    -6.100000000
O     1.056000000     1.100000000    -6.255000000
H     1.027000000     0.277000000    -5.768000000
H     0.155000000     1.422000000    -6.234000000
O     3.861000000     2.195000000     4.873000000
H     3.259000000     2.336000000     4.142000000
H     4.727000000     2.379000000     4.508000000
O     0.191000000    -2.976000000     8.383000000
H    -0.532000000    -2.559000000     8.852000000
H    -0.131000000    -3.075000000     7.487000000
O    -1.879000000    -6.384000000     3.537000000
H    -1.836000000    -5.935000000     2.692000000
H    -2.541000000    -5.901000000     4.031000000
O     2.834000000     5.028000000    -2.526000000
H     2.753000000     5.412000000    -3.399000000
H     3.005000000     4.100000000    -2.687000000
O     3.005000000    -2.058000000     6.504000000
H     2.480000000    -1.282000000     6.307000000
H     2.365000000    -2.761000000     6.608000000
O     3.894000000    -4.058000000    -2.772000000
H     4.520000000    -3.687000000    -3.394000000
H     4.395000000    -4.165000000    -1.963000000
O    -2.821000000    -3.139000000     3.018000000
H    -2.145000000    -2.500000000     2.791000000
H    -3.032000000    -2.949000000     3.932000000
O    -3.159000000    -0.408000000    -6.541000000
H    -3.250000000     0.532000000    -6.696000000
H    -3.204000000    -0.499000000    -5.589000000
O     2.300000000     5.772000000     3.761000000
H     1.755000000     5.567000000     3.001000000
H     3.161000000     5.968000000     3.393000000
O     0.604000000     4.290000000    -4.857000000
H     0.394000000     4.326000000    -5.790000000
H     1.545000000     4.459000000    -4.817000000
O     0.693000000    -5.189000000    -0.003000000
H     0.663000000    -6.084000000     0.335000000
H     0.333000000    -5.255000000    -0.887000000
O    -0.303000000    -4.810000000    -2.565000000
H     0.483000000    -5.205000000    -2.942000000
H    -1.028000000    -5.270000000    -2.986000000
O     4.238000000     2.592000000    -3.084000000
H     4.128000000     1.956000000    -2.377000000
H     4.183000000     2.071000000    -3.885000000
O    -2.533000000    -4.819000000     0.736000000
H    -3.169000000    -4.384000000     1.304000000
H    -1.743000000    -4.283000000     0.808000000
O     2.995000000    -2.993000000     1.373000000
H     2.619000000    -3.549000000     0.691000000
H     2.469000000    -3.180000000     2.151000000
O    -0.952000000    -1.826000000    -7.399000000
H    -1.750000000    -1.687000000    -6.889000000
H    -0.310000000    -2.136000000    -6.760000000
O    -1.443000000    -2.506000000    -4.136000000
H    -1.023000000    -3.248000000    -3.700000000
H    -2.205000000    -2.885000000    -4.573000000
O    -3.076000000     0.550000000    -0.030000000
H    -2.214000000     0.632000000     0.379000000
H    -2.936000000    -0.039000000    -0.770000000
O     1.904000000    -4.631000000     6.153000000
H     2.211000000    -5.245000000     6.820000000
H     0.955000000    -4.751000000     6.135000000
