158
-3025.20836
C     1.195000000    -0.839000000     0.385000000
H     2.046000000    -1.480000000     0.598000000
C     0.620000000    -0.856000000    -0.872000000
H     1.079000000    -1.354000000    -1.721000000
C    -0.513000000    -0.105000000    -1.074000000
H    -1.118000000    -0.154000000    -2.042000000
C    -1.064000000     0.749000000    -0.112000000
H    -2.004000000     1.263000000    -0.297000000
C    -0.471000000     0.796000000     1.119000000
H    -0.781000000     1.457000000     1.924000000
C     0.638000000    -0.011000000     1.401000000
C     1.323000000     0.226000000     2.731000000
O     2.056000000    -0.587000000     3.148000000
O     0.891000000     1.064000000     3.474000000
O    -4.344000000     1.887000000    -6.836000000
H    -4.459000000     2.767000000    -6.477000000
H    -3.823000000     1.427000000    -6.178000000
O     0.712000000    -0.278000000    -7.086000000
H    -0.043000000    -0.259000000    -7.674000000
H     0.793000000     0.623000000    -6.771000000
O     2.930000000    -3.920000000    -0.504000000
H     3.332000000    -3.990000000     0.362000000
H     2.507000000    -4.767000000    -0.642000000
O     5.947000000     1.090000000     2.491000000
H     6.524000000     1.621000000     1.942000000
H     6.112000000     1.400000000     3.381000000
O     2.139000000     4.762000000    -0.360000000
H     1.244000000     5.088000000    -0.266000000
H     2.043000000     3.811000000    -0.418000000
O     6.987000000    -1.779000000     0.592000000
H     6.130000000    -1.528000000     0.246000000
H     7.439000000    -2.176000000    -0.153000000
O     4.475000000    -0.583000000     4.480000000
H     4.702000000    -0.113000000     3.678000000
H     3.535000000    -0.750000000     4.402000000
O    -5.675000000     1.902000000     0.699000000
H    -5.619000000     1.035000000     1.101000000
H    -5.775000000     2.503000000     1.437000000
O    -3.426000000     3.275000000     4.742000000
H    -3.717000000     2.515000000     4.237000000
H    -2.474000000     3.274000000     4.650000000
O     1.259000000    -5.761000000     2.287000000
H     2.115000000    -6.049000000     2.605000000
H     1.193000000    -4.849000000     2.569000000
O     2.188000000    -4.119000000     5.884000000
H     2.207000000    -3.802000000     4.981000000
H     1.323000000    -4.518000000     5.980000000
O    -1.045000000    -2.190000000    -6.024000000
H    -0.507000000    -1.481000000    -6.377000000
H    -0.446000000    -2.692000000    -5.470000000
O     2.586000000     2.040000000     5.584000000
H     2.682000000     1.231000000     6.087000000
H     1.937000000     1.829000000     4.913000000
O    -4.850000000     4.840000000     0.308000000
H    -4.322000000     5.302000000     0.960000000
H    -5.181000000     4.070000000     0.769000000
O    -0.233000000    -0.782000000     6.315000000
H    -0.159000000     0.149000000     6.523000000
H    -0.175000000    -1.223000000     7.162000000
O     3.084000000     2.722000000     1.998000000
H     2.222000000     2.965000000     2.337000000
H     3.337000000     1.957000000     2.515000000
O     0.867000000    -3.303000000     3.115000000
H     1.204000000    -2.441000000     2.872000000
H     0.163000000    -3.119000000     3.737000000
O    -6.381000000     2.963000000    -1.806000000
H    -5.934000000     2.642000000    -1.023000000
H    -6.560000000     3.884000000    -1.619000000
O    -0.917000000     5.362000000    -0.818000000
H    -0.516000000     5.813000000    -1.560000000
H    -1.394000000     4.632000000    -1.210000000
O    -1.450000000    -0.738000000     3.938000000
H    -0.891000000     0.035000000     3.864000000
H    -1.111000000    -1.206000000     4.702000000
O     4.515000000     1.215000000    -0.122000000
H     3.907000000     1.619000000     0.498000000
H     5.320000000     1.725000000    -0.034000000
O    -4.613000000     2.075000000    -3.594000000
H    -4.608000000     1.136000000    -3.407000000
H    -5.173000000     2.451000000    -2.914000000
O    -1.060000000     4.914000000     2.758000000
H    -0.398000000     5.435000000     3.211000000
H    -1.658000000     5.561000000     2.382000000
O    -0.367000000     1.933000000     6.948000000
H    -0.287000000     2.280000000     6.060000000
H    -1.139000000     2.370000000     7.307000000
O    -2.136000000     3.657000000    -2.501000000
H    -2.424000000     2.912000000    -3.028000000
H    -2.812000000     4.321000000    -2.636000000
O    -4.922000000    -3.863000000    -2.856000000
H    -4.908000000    -4.726000000    -3.270000000
H    -4.492000000    -3.287000000    -3.488000000
O     4.081000000    -2.697000000     2.186000000
H     4.808000000    -2.520000000     1.588000000
H     3.730000000    -1.832000000     2.398000000
O     0.866000000     2.062000000    -5.711000000
H     0.846000000     2.717000000    -6.408000000
H     0.859000000     2.573000000    -4.902000000
O     2.355000000    -1.467000000     6.337000000
H     2.273000000    -2.413000000     6.214000000
H     1.598000000    -1.100000000     5.880000000
O    -1.580000000    -2.788000000     1.116000000
H    -1.149000000    -2.036000000     0.710000000
H    -0.877000000    -3.247000000     1.576000000
O     3.212000000    -1.570000000    -4.747000000
H     3.613000000    -2.083000000    -4.045000000
H     2.347000000    -1.962000000    -4.867000000
O     4.299000000    -3.096000000    -2.764000000
H     3.603000000    -3.323000000    -2.148000000
H     4.857000000    -2.486000000    -2.281000000
O     3.668000000     1.008000000    -5.359000000
H     2.804000000     1.414000000    -5.421000000
H     3.498000000     0.136000000    -5.003000000
O    -0.748000000     2.965000000     4.445000000
H    -0.218000000     2.288000000     4.026000000
H    -0.917000000     3.601000000     3.750000000
O    -2.966000000    -4.098000000    -1.098000000
H    -3.787000000    -3.851000000    -1.524000000
H    -2.883000000    -3.488000000    -0.365000000
O    -1.566000000     0.924000000    -5.476000000
H    -1.004000000     0.276000000    -5.901000000
H    -0.991000000     1.672000000    -5.317000000
O    -4.125000000    -2.660000000     1.509000000
H    -4.156000000    -3.281000000     2.236000000
H    -3.201000000    -2.621000000     1.265000000
O     4.746000000     0.116000000     7.352000000
H     4.358000000     0.340000000     8.198000000
H     4.095000000    -0.447000000     6.932000000
O     2.055000000     3.318000000     8.004000000
H     2.950000000     3.085000000     8.251000000
H     1.913000000     2.874000000     7.168000000
O    -3.887000000    -1.369000000    -4.347000000
H    -2.993000000    -1.397000000    -4.688000000
H    -3.794000000    -1.025000000    -3.459000000
O     5.800000000    -2.749000000     5.056000000
H     5.272000000    -1.951000000     5.068000000
H     5.213000000    -3.419000000     4.705000000
O     1.940000000     2.027000000    -0.867000000
H     2.801000000     1.618000000    -0.791000000
H     1.321000000     1.307000000    -0.748000000
O    -4.297000000    -0.144000000    -1.955000000
H    -5.171000000    -0.444000000    -1.707000000
H    -3.957000000     0.281000000    -1.167000000
O    -0.253000000    -5.768000000    -2.412000000
H    -0.838000000    -6.490000000    -2.644000000
H    -0.775000000    -5.215000000    -1.829000000
O     0.626000000    -3.921000000    -4.442000000
H     0.123000000    -3.915000000    -3.628000000
H     0.813000000    -4.846000000    -4.602000000
O     5.476000000    -1.156000000    -1.438000000
H     4.928000000    -0.515000000    -0.986000000
H     6.174000000    -0.636000000    -1.836000000
O     0.802000000     3.622000000    -3.280000000
H     0.948000000     3.077000000    -2.507000000
H    -0.094000000     3.944000000    -3.181000000
O    -3.811000000     0.826000000     3.753000000
H    -4.376000000     0.326000000     3.163000000
H    -2.992000000     0.332000000     3.776000000
