158
-3025.16268
C     0.146000000    -1.094000000     0.934000000
H     0.019000000    -1.930000000     1.617000000
C    -0.034000000    -1.258000000    -0.451000000
H    -0.088000000    -2.294000000    -0.775000000
C    -0.141000000    -0.067000000    -1.232000000
H    -0.287000000    -0.165000000    -2.284000000
C    -0.198000000     1.169000000    -0.616000000
H    -0.104000000     2.058000000    -1.235000000
C     0.113000000     1.251000000     0.736000000
H     0.234000000     2.226000000     1.201000000
C     0.194000000     0.149000000     1.539000000
C     0.348000000     0.180000000     3.042000000
O    -0.350000000    -0.644000000     3.635000000
O     1.051000000     0.986000000     3.605000000
O     4.698000000    -1.994000000    -1.303000000
H     4.258000000    -1.231000000    -0.930000000
H     5.245000000    -2.328000000    -0.592000000
O     4.167000000     4.229000000     1.367000000
H     3.533000000     3.850000000     1.975000000
H     3.830000000     5.106000000     1.185000000
O    -3.083000000    -0.128000000     3.971000000
H    -2.173000000    -0.203000000     3.682000000
H    -3.396000000     0.681000000     3.567000000
O     4.274000000     5.381000000    -2.323000000
H     5.088000000     4.909000000    -2.150000000
H     3.588000000     4.721000000    -2.221000000
O    -1.455000000    -3.059000000     3.438000000
H    -2.020000000    -2.892000000     2.684000000
H    -1.091000000    -2.202000000     3.659000000
O    -5.431000000    -1.282000000     5.055000000
H    -5.810000000    -0.558000000     5.554000000
H    -4.529000000    -1.010000000     4.886000000
O     2.274000000     4.108000000     7.477000000
H     2.506000000     3.285000000     7.048000000
H     1.539000000     4.447000000     6.965000000
O    -4.237000000    -4.613000000    -5.400000000
H    -3.695000000    -5.326000000    -5.739000000
H    -3.667000000    -4.150000000    -4.786000000
O     1.973000000    -2.797000000     3.227000000
H     1.179000000    -2.661000000     3.744000000
H     2.355000000    -3.601000000     3.580000000
O     2.220000000     3.617000000     3.543000000
H     1.683000000     4.335000000     3.208000000
H     1.691000000     2.833000000     3.395000000
O    -4.630000000     0.015000000    -4.893000000
H    -4.935000000     0.773000000    -5.390000000
H    -5.248000000    -0.060000000    -4.166000000
O    -2.828000000     2.466000000     0.600000000
H    -2.137000000     1.828000000     0.423000000
H    -2.602000000     2.831000000     1.456000000
O    -2.241000000     2.965000000     3.506000000
H    -1.528000000     3.512000000     3.837000000
H    -2.900000000     2.984000000     4.200000000
O    -2.955000000     5.839000000     0.234000000
H    -2.493000000     5.599000000    -0.569000000
H    -3.872000000     5.916000000    -0.031000000
O     0.420000000    -0.733000000     6.181000000
H     1.374000000    -0.776000000     6.107000000
H     0.121000000    -0.524000000     5.296000000
O    -4.680000000     3.778000000    -1.122000000
H    -3.984000000     3.351000000    -0.622000000
H    -5.467000000     3.274000000    -0.915000000
O    -3.179000000    -2.409000000    -3.177000000
H    -2.549000000    -3.025000000    -2.803000000
H    -3.667000000    -2.078000000    -2.423000000
O     0.209000000     5.153000000     1.913000000
H    -0.593000000     5.673000000     1.852000000
H     0.876000000     5.690000000     1.486000000
O     3.600000000    -0.903000000     5.812000000
H     4.251000000    -0.901000000     5.110000000
H     3.777000000    -1.706000000     6.301000000
O    -1.960000000    -0.464000000    -4.955000000
H    -1.994000000    -1.166000000    -4.305000000
H    -2.810000000    -0.030000000    -4.883000000
O    -1.426000000     5.159000000    -1.977000000
H    -0.508000000     4.913000000    -2.096000000
H    -1.919000000     4.433000000    -2.358000000
O     2.311000000     3.397000000    -2.468000000
H     2.320000000     2.800000000    -1.720000000
H     1.552000000     3.124000000    -2.983000000
O    -2.960000000    -6.793000000    -1.791000000
H    -2.167000000    -6.302000000    -1.578000000
H    -2.643000000    -7.580000000    -2.236000000
O    -2.817000000     3.188000000    -3.587000000
H    -3.104000000     3.578000000    -4.413000000
H    -3.625000000     2.890000000    -3.169000000
O     3.198000000     0.810000000    -1.111000000
H     2.489000000     0.426000000    -0.596000000
H     2.980000000     0.592000000    -2.018000000
O     4.350000000     1.304000000     3.142000000
H     5.023000000     1.717000000     3.683000000
H     3.550000000     1.793000000     3.339000000
O    -1.929000000    -2.431000000    -7.345000000
H    -2.302000000    -1.852000000    -8.009000000
H    -1.982000000    -1.928000000    -6.532000000
O     3.360000000     2.032000000    -5.556000000
H     4.204000000     1.869000000    -5.134000000
H     3.499000000     1.789000000    -6.472000000
O    -2.812000000    -4.137000000     5.682000000
H    -2.906000000    -3.351000000     6.220000000
H    -2.271000000    -3.858000000     4.943000000
O     0.546000000    -3.404000000    -3.850000000
H     0.739000000    -2.614000000    -4.355000000
H     1.299000000    -3.975000000    -4.002000000
O    -1.152000000     2.863000000    -7.434000000
H    -0.752000000     2.131000000    -6.965000000
H    -0.636000000     3.626000000    -7.172000000
O     2.543000000     1.685000000     6.084000000
H     3.095000000     0.903000000     6.072000000
H     2.048000000     1.641000000     5.266000000
O    -0.812000000    -6.024000000    -0.199000000
H     0.074000000    -6.376000000    -0.286000000
H    -0.905000000    -5.840000000     0.736000000
O    -1.175000000    -4.790000000    -5.973000000
H    -1.395000000    -4.244000000    -6.727000000
H    -0.504000000    -4.292000000    -5.505000000
O    -0.568000000    -5.629000000     2.593000000
H    -1.452000000    -5.932000000     2.798000000
H    -0.512000000    -4.763000000     2.997000000
O     1.565000000    -1.452000000    -5.889000000
H     1.252000000    -2.082000000    -6.539000000
H     2.490000000    -1.667000000    -5.773000000
O    -2.548000000    -1.389000000     6.429000000
H    -2.710000000    -1.013000000     5.564000000
H    -1.632000000    -1.183000000     6.612000000
O    -1.409000000    -4.119000000    -2.223000000
H    -0.960000000    -4.475000000    -1.456000000
H    -0.703000000    -3.858000000    -2.814000000
O     2.461000000     0.197000000    -3.616000000
H     2.954000000     0.924000000    -3.998000000
H     2.164000000    -0.313000000    -4.370000000
O    -2.931000000    -3.014000000     0.564000000
H    -3.384000000    -2.171000000     0.525000000
H    -2.699000000    -3.204000000    -0.345000000
O     4.774000000    -1.390000000     3.351000000
H     4.609000000    -0.447000000     3.342000000
H     3.922000000    -1.783000000     3.158000000
O    -0.533000000     2.904000000     5.610000000
H    -1.023000000     2.244000000     6.100000000
H    -0.456000000     2.540000000     4.729000000
O     3.994000000    -5.155000000    -0.920000000
H     4.374000000    -5.004000000    -0.054000000
H     3.963000000    -4.287000000    -1.322000000
O     0.165000000     0.805000000    -6.291000000
H     0.783000000     0.077000000    -6.223000000
H    -0.648000000     0.464000000    -5.918000000
O     0.353000000     5.371000000     5.838000000
H     0.211000000     4.426000000     5.879000000
H    -0.389000000     5.704000000     5.333000000
O     0.303000000    -3.000000000     8.633000000
H     0.122000000    -2.276000000     8.033000000
H    -0.485000000    -3.068000000     9.171000000
O    -0.013000000     2.413000000    -3.759000000
H    -0.893000000     2.748000000    -3.931000000
H     0.042000000     1.608000000    -4.275000000
O    -5.082000000    -1.759000000    -1.197000000
H    -5.607000000    -1.325000000    -0.524000000
H    -5.588000000    -1.650000000    -2.002000000
