158
-3036.54481
C    -0.890000000    -0.612000000     1.110000000
H    -1.583000000    -1.018000000     1.843000000
C    -1.295000000    -0.286000000    -0.221000000
H    -2.322000000    -0.505000000    -0.502000000
C    -0.401000000     0.209000000    -1.149000000
H    -0.757000000     0.425000000    -2.145000000
C     0.897000000     0.430000000    -0.783000000
H     1.502000000     0.820000000    -1.598000000
C     1.311000000     0.230000000     0.542000000
H     2.304000000     0.594000000     0.792000000
C     0.396000000    -0.266000000     1.529000000
C     0.916000000    -0.337000000     2.908000000
O     0.051000000    -0.754000000     3.760000000
O     2.050000000    -0.064000000     3.270000000
O     0.102000000    -1.178000000    -7.829000000
H     0.498000000    -0.418000000    -8.254000000
H     0.759000000    -1.469000000    -7.197000000
O    -2.106000000     3.200000000     0.409000000
H    -2.167000000     2.437000000    -0.166000000
H    -2.476000000     2.904000000     1.240000000
O     3.103000000    -3.270000000    -4.926000000
H     4.042000000    -3.323000000    -5.103000000
H     3.046000000    -2.954000000    -4.024000000
O     0.322000000     3.377000000     4.017000000
H    -0.447000000     3.208000000     4.561000000
H     0.169000000     4.247000000     3.648000000
O    -6.487000000     1.532000000    -0.418000000
H    -5.809000000     1.484000000     0.257000000
H    -7.163000000     2.094000000    -0.038000000
O     3.364000000     1.093000000     5.409000000
H     3.429000000     1.991000000     5.083000000
H     2.623000000     0.718000000     4.933000000
O     2.401000000    -1.696000000     5.721000000
H     2.155000000    -1.588000000     4.802000000
H     2.517000000    -0.802000000     6.044000000
O     3.855000000    -4.202000000     6.326000000
H     3.555000000    -3.349000000     6.012000000
H     4.566000000    -3.996000000     6.933000000
O     2.615000000     2.480000000     3.001000000
H     1.739000000     2.787000000     3.234000000
H     2.532000000     1.527000000     2.958000000
O     3.755000000     4.498000000     4.398000000
H     3.490000000     4.185000000     5.263000000
H     3.277000000     3.939000000     3.785000000
O    -4.789000000    -0.568000000     0.790000000
H    -5.113000000    -1.414000000     1.100000000
H    -3.840000000    -0.617000000     0.908000000
O     7.150000000     1.016000000     0.415000000
H     6.624000000     1.272000000    -0.342000000
H     6.803000000     1.543000000     1.136000000
O    -5.292000000    -1.457000000    -4.420000000
H    -4.785000000    -1.410000000    -3.609000000
H    -5.545000000    -0.551000000    -4.597000000
O    -3.561000000     2.630000000     2.647000000
H    -4.408000000     2.212000000     2.489000000
H    -3.420000000     2.537000000     3.589000000
O     0.896000000     4.214000000    -0.693000000
H     0.940000000     4.891000000    -0.017000000
H     0.397000000     3.504000000    -0.289000000
O    -0.413000000    -3.278000000     3.571000000
H    -0.407000000    -2.329000000     3.690000000
H    -1.097000000    -3.433000000     2.919000000
O    -3.385000000     2.110000000    -3.128000000
H    -3.098000000     1.804000000    -3.988000000
H    -3.109000000     3.026000000    -3.094000000
O    -1.170000000    -4.244000000    -5.338000000
H    -1.376000000    -3.545000000    -4.718000000
H    -2.007000000    -4.680000000    -5.496000000
O     0.419000000    -3.771000000     6.146000000
H     1.145000000    -3.181000000     6.348000000
H     0.215000000    -3.594000000     5.227000000
O    -2.330000000    -2.190000000    -4.144000000
H    -2.720000000    -2.020000000    -5.002000000
H    -1.820000000    -1.403000000    -3.953000000
O    -3.291000000    -4.351000000     4.790000000
H    -2.998000000    -4.818000000     4.007000000
H    -2.839000000    -4.786000000     5.512000000
O    -2.275000000     4.559000000    -4.141000000
H    -2.694000000     5.343000000    -3.787000000
H    -2.674000000     4.443000000    -5.004000000
O    -3.480000000     1.089000000    -6.135000000
H    -3.082000000     1.704000000    -6.751000000
H    -3.212000000     0.227000000    -6.451000000
O     5.491000000     1.549000000    -1.722000000
H     4.921000000     0.814000000    -1.498000000
H     5.167000000     1.855000000    -2.569000000
O     5.654000000     3.025000000     2.116000000
H     6.152000000     3.366000000     2.859000000
H     4.750000000     2.993000000     2.428000000
O    -4.962000000    -3.258000000     1.146000000
H    -4.016000000    -3.386000000     1.218000000
H    -5.313000000    -4.140000000     1.020000000
O    -2.808000000    -1.238000000    -7.118000000
H    -3.105000000    -2.101000000    -7.408000000
H    -1.853000000    -1.308000000    -7.098000000
O    -2.175000000     0.543000000     8.063000000
H    -1.690000000     0.212000000     7.307000000
H    -2.094000000     1.495000000     8.001000000
O     3.024000000    -2.220000000    -2.099000000
H     3.013000000    -3.013000000    -1.563000000
H     3.702000000    -1.673000000    -1.703000000
O     1.705000000     2.299000000    -5.336000000
H     2.644000000     2.254000000    -5.155000000
H     1.412000000     3.092000000    -4.886000000
O     4.233000000    -1.435000000     2.521000000
H     3.718000000    -2.101000000     2.064000000
H     3.580000000    -0.850000000     2.905000000
O    -3.401000000    -3.531000000    -1.903000000
H    -2.859000000    -3.264000000    -2.645000000
H    -4.085000000    -2.864000000    -1.852000000
O     0.334000000     0.423000000     6.332000000
H     0.368000000    -0.381000000     5.814000000
H    -0.059000000     1.069000000     5.745000000
O     2.292000000    -1.167000000    -6.231000000
H     2.620000000    -1.881000000    -5.685000000
H     3.081000000    -0.722000000    -6.542000000
O    -2.342000000    -0.558000000     5.543000000
H    -1.596000000    -0.532000000     4.944000000
H    -2.969000000    -1.146000000     5.121000000
O     0.309000000    -3.065000000    -1.377000000
H    -0.120000000    -2.534000000    -0.707000000
H     0.946000000    -2.474000000    -1.779000000
O     4.149000000     2.227000000    -4.135000000
H     4.307000000     3.087000000    -3.745000000
H     4.906000000     2.079000000    -4.702000000
O    -6.012000000     1.431000000    -3.274000000
H    -5.076000000     1.634000000    -3.281000000
H    -6.268000000     1.517000000    -2.355000000
O    -2.261000000    -3.808000000     0.677000000
H    -1.757000000    -4.619000000     0.606000000
H    -2.556000000    -3.629000000    -0.216000000
O    -4.230000000    -1.956000000     3.905000000
H    -3.882000000    -2.821000000     4.125000000
H    -4.718000000    -2.094000000     3.093000000
O    -1.606000000     2.916000000     5.917000000
H    -1.591000000     3.867000000     6.018000000
H    -2.515000000     2.712000000     5.700000000
O     5.045000000    -1.186000000    -0.330000000
H     5.047000000    -0.632000000     0.451000000
H     5.298000000    -2.052000000    -0.011000000
O    -0.126000000    -0.350000000    -4.720000000
H     0.442000000     0.363000000    -4.429000000
H     0.319000000    -0.714000000    -5.486000000
O     6.761000000    -1.646000000     3.553000000
H     6.964000000    -0.977000000     4.206000000
H     5.820000000    -1.555000000     3.400000000
O     0.851000000     2.760000000     7.503000000
H     0.515000000     1.897000000     7.264000000
H     0.387000000     2.983000000     8.310000000
O     0.495000000     3.208000000    -7.550000000
H     0.808000000     2.761000000    -6.764000000
H     0.914000000     2.743000000    -8.274000000
O     0.574000000     4.064000000    -3.533000000
H     0.790000000     4.226000000    -2.615000000
H    -0.382000000     4.032000000    -3.553000000
O    -5.239000000    -1.417000000    -1.723000000
H    -6.151000000    -1.131000000    -1.778000000
H    -5.010000000    -1.312000000    -0.799000000
