158
-3051.04886
C     0.152000000    -1.169000000     0.796000000
H     0.309000000    -2.184000000     1.153000000
C     0.323000000    -1.069000000    -0.589000000
H     0.552000000    -1.982000000    -1.133000000
C     0.147000000     0.162000000    -1.228000000
H     0.217000000     0.302000000    -2.296000000
C    -0.211000000     1.263000000    -0.448000000
H    -0.254000000     2.218000000    -0.964000000
C    -0.455000000     1.162000000     0.916000000
H    -0.588000000     2.031000000     1.555000000
C    -0.306000000    -0.106000000     1.540000000
C    -0.674000000    -0.368000000     3.035000000
O    -0.444000000    -1.484000000     3.531000000
O    -0.961000000     0.524000000     3.823000000
O    -3.965000000     0.751000000     0.245000000
H    -3.724000000     0.848000000     1.166000000
H    -4.676000000     0.110000000     0.250000000
O     1.869000000     4.169000000     0.728000000
H     1.858000000     3.720000000     1.573000000
H     0.948000000     4.345000000     0.537000000
O    -3.284000000     5.441000000     2.115000000
H    -3.561000000     6.261000000     1.708000000
H    -4.094000000     4.942000000     2.223000000
O     3.633000000     4.086000000    -1.369000000
H     3.169000000     4.095000000    -0.532000000
H     2.974000000     3.807000000    -2.005000000
O    -2.831000000    -2.789000000     3.512000000
H    -3.000000000    -2.970000000     4.437000000
H    -2.045000000    -2.243000000     3.514000000
O     1.385000000     2.546000000    -7.648000000
H     1.039000000     2.280000000    -6.796000000
H     1.618000000     3.468000000    -7.534000000
O     1.603000000     2.942000000     6.949000000
H     1.929000000     2.247000000     6.378000000
H     0.657000000     2.948000000     6.802000000
O     4.950000000    -1.097000000    -3.358000000
H     5.809000000    -0.699000000    -3.217000000
H     4.326000000    -0.414000000    -3.112000000
O     3.523000000    -3.402000000    -2.369000000
H     4.043000000    -2.688000000    -2.738000000
H     3.820000000    -3.470000000    -1.462000000
O     2.340000000    -2.284000000     3.784000000
H     1.481000000    -1.912000000     3.586000000
H     2.817000000    -2.241000000     2.955000000
O     2.092000000     3.182000000     3.346000000
H     1.598000000     3.507000000     4.098000000
H     1.442000000     2.723000000     2.813000000
O    -2.516000000    -2.034000000    -1.864000000
H    -2.269000000    -1.204000000    -1.457000000
H    -1.693000000    -2.395000000    -2.192000000
O     5.291000000     0.714000000     0.598000000
H     4.396000000     0.559000000     0.296000000
H     5.210000000     0.817000000     1.546000000
O    -4.498000000     1.927000000     3.429000000
H    -4.719000000     2.668000000     2.864000000
H    -3.545000000     1.857000000     3.370000000
O    -2.445000000    -0.646000000     6.007000000
H    -1.776000000    -1.315000000     6.157000000
H    -2.145000000    -0.180000000     5.226000000
O    -4.451000000     2.543000000    -1.937000000
H    -4.093000000     1.907000000    -2.556000000
H    -4.329000000     2.136000000    -1.079000000
O    -3.092000000    -4.714000000    -3.890000000
H    -2.196000000    -4.416000000    -3.738000000
H    -3.592000000    -4.353000000    -3.158000000
O     2.851000000    -5.140000000     4.579000000
H     2.614000000    -4.248000000     4.328000000
H     2.027000000    -5.626000000     4.543000000
O    -0.653000000     5.041000000     0.481000000
H    -1.446000000     5.149000000     1.006000000
H    -0.602000000     5.840000000    -0.043000000
O    -0.413000000    -3.548000000     5.403000000
H    -0.313000000    -3.088000000     4.570000000
H    -0.167000000    -2.902000000     6.065000000
O    -2.780000000    -2.492000000    -5.266000000
H    -2.967000000    -3.301000000    -4.789000000
H    -3.641000000    -2.105000000    -5.428000000
O     1.580000000     6.161000000    -2.117000000
H     1.128000000     5.467000000    -2.595000000
H     2.034000000     5.707000000    -1.407000000
O     1.419000000     3.590000000    -3.167000000
H     0.498000000     3.401000000    -2.986000000
H     1.736000000     2.814000000    -3.629000000
O    -2.555000000     1.118000000    -3.986000000
H    -2.821000000     0.956000000    -4.891000000
H    -2.027000000     0.355000000    -3.751000000
O     3.046000000     0.153000000    -0.631000000
H     2.122000000     0.286000000    -0.415000000
H     3.110000000     0.378000000    -1.559000000
O    -2.152000000    -0.476000000    -6.849000000
H    -2.876000000     0.052000000    -7.186000000
H    -2.567000000    -1.100000000    -6.254000000
O     4.638000000     2.467000000    -4.553000000
H     5.578000000     2.603000000    -4.670000000
H     4.244000000     2.824000000    -5.349000000
O     0.326000000    -5.940000000     4.015000000
H    -0.022000000    -5.529000000     4.806000000
H    -0.428000000    -6.010000000     3.430000000
O     1.315000000    -2.878000000    -4.164000000
H     1.380000000    -2.688000000    -5.100000000
H     2.219000000    -2.847000000    -3.850000000
O     1.849000000    -5.348000000     0.773000000
H     2.604000000    -4.768000000     0.875000000
H     2.126000000    -6.174000000     1.169000000
O     0.069000000     1.526000000    -5.139000000
H     0.171000000     0.574000000    -5.113000000
H    -0.232000000     1.758000000    -4.260000000
O     1.576000000     0.560000000     5.172000000
H     2.163000000     0.513000000     4.418000000
H     0.734000000     0.248000000     4.839000000
O    -0.619000000    -5.277000000    -0.302000000
H     0.131000000    -5.322000000     0.290000000
H    -1.283000000    -4.793000000     0.189000000
O    -2.316000000    -5.791000000     2.670000000
H    -2.698000000    -5.218000000     3.334000000
H    -2.398000000    -5.300000000     1.853000000
O     0.578000000    -1.370000000     6.931000000
H     0.090000000    -0.899000000     7.607000000
H     1.303000000    -0.786000000     6.708000000
O     2.905000000    -0.717000000    -5.947000000
H     2.332000000    -0.892000000    -6.694000000
H     3.594000000    -1.377000000    -6.014000000
O    -5.047000000    -1.201000000     6.785000000
H    -4.892000000    -2.082000000     6.445000000
H    -4.240000000    -0.724000000     6.590000000
O    -0.816000000    -4.012000000    -2.923000000
H    -0.527000000    -4.754000000    -2.392000000
H    -0.014000000    -3.681000000    -3.328000000
O     2.864000000     0.585000000    -3.577000000
H     3.370000000     1.331000000    -3.900000000
H     2.672000000     0.069000000    -4.359000000
O    -2.568000000    -3.564000000     0.703000000
H    -2.997000000    -3.118000000     1.433000000
H    -2.908000000    -3.128000000    -0.078000000
O     2.066000000    -5.618000000    -2.041000000
H     1.902000000    -5.566000000    -1.099000000
H     2.459000000    -4.774000000    -2.263000000
O     3.907000000    -1.703000000     5.844000000
H     3.961000000    -0.808000000     5.511000000
H     3.398000000    -2.174000000     5.184000000
O    -1.158000000     2.753000000     5.637000000
H    -1.669000000     2.261000000     6.280000000
H    -0.952000000     2.114000000     4.955000000
O     3.439000000    -2.210000000     1.316000000
H     4.220000000    -2.546000000     0.876000000
H     3.074000000    -1.573000000     0.702000000
O    -0.783000000    -1.201000000    -4.321000000
H    -0.017000000    -1.703000000    -4.043000000
H    -1.370000000    -1.853000000    -4.705000000
O    -0.892000000     5.343000000     3.869000000
H    -1.359000000     4.735000000     4.443000000
H    -1.544000000     5.610000000     3.221000000
O    -2.197000000     2.477000000    -6.583000000
H    -1.358000000     2.228000000    -6.196000000
H    -1.978000000     2.752000000    -7.473000000
O    -1.205000000     3.282000000    -3.049000000
H    -1.795000000     2.582000000    -3.330000000
H    -1.624000000     4.086000000    -3.356000000
