158
-3032.70262
C    -0.897000000    -0.909000000     0.770000000
H    -1.602000000    -1.560000000     1.281000000
C    -0.885000000    -0.832000000    -0.621000000
H    -1.581000000    -1.458000000    -1.173000000
C     0.017000000     0.110000000    -1.168000000
H     0.192000000     0.091000000    -2.200000000
C     0.890000000     0.806000000    -0.468000000
H     1.548000000     1.498000000    -0.986000000
C     0.863000000     0.749000000     0.926000000
H     1.529000000     1.450000000     1.423000000
C    -0.012000000    -0.127000000     1.537000000
C     0.054000000    -0.332000000     3.046000000
O    -0.344000000    -1.364000000     3.538000000
O     0.491000000     0.564000000     3.764000000
O     4.351000000     2.156000000     0.524000000
H     4.124000000     2.917000000    -0.010000000
H     3.996000000     2.356000000     1.390000000
O    -3.142000000     3.823000000    -1.347000000
H    -3.060000000     2.970000000    -1.773000000
H    -3.983000000     4.163000000    -1.653000000
O    -0.780000000     2.081000000     5.484000000
H    -1.630000000     1.653000000     5.584000000
H    -0.352000000     1.600000000     4.775000000
O     0.633000000     3.645000000    -6.885000000
H     0.525000000     2.965000000    -7.550000000
H     1.244000000     3.267000000    -6.253000000
O     2.954000000     2.078000000     7.288000000
H     2.510000000     1.230000000     7.289000000
H     3.422000000     2.104000000     8.122000000
O     5.552000000     0.676000000    -2.389000000
H     5.766000000     0.866000000    -1.475000000
H     5.011000000    -0.112000000    -2.349000000
O    -6.367000000    -0.561000000    -2.952000000
H    -7.019000000    -1.130000000    -2.544000000
H    -5.545000000    -1.046000000    -2.879000000
O     0.785000000    -1.823000000     6.308000000
H     0.253000000    -1.585000000     5.549000000
H     0.667000000    -1.097000000     6.921000000
O    -3.158000000     1.235000000     5.797000000
H    -3.932000000     0.837000000     5.399000000
H    -3.328000000     1.202000000     6.738000000
O     3.196000000     1.647000000     3.320000000
H     3.684000000     0.838000000     3.470000000
H     2.344000000     1.492000000     3.729000000
O    -2.337000000    -4.010000000     1.828000000
H    -3.200000000    -3.630000000     1.996000000
H    -1.930000000    -4.072000000     2.692000000
O     0.187000000     3.857000000    -1.155000000
H     0.065000000     3.579000000    -0.247000000
H    -0.299000000     4.679000000    -1.221000000
O     1.381000000     3.675000000     5.164000000
H     2.044000000     3.120000000     5.574000000
H     0.593000000     3.133000000     5.145000000
O    -4.127000000    -0.232000000     0.104000000
H    -4.100000000     0.563000000    -0.429000000
H    -4.852000000    -0.088000000     0.711000000
O     5.889000000    -0.280000000     0.278000000
H     5.430000000     0.553000000     0.382000000
H     5.207000000    -0.944000000     0.378000000
O    -3.291000000     2.546000000     3.159000000
H    -4.055000000     3.089000000     2.966000000
H    -2.850000000     3.001000000     3.877000000
O    -4.321000000    -2.988000000    -0.767000000
H    -4.182000000    -2.254000000    -0.168000000
H    -4.106000000    -2.635000000    -1.631000000
O     3.150000000     3.938000000    -1.128000000
H     3.365000000     3.851000000    -2.056000000
H     2.210000000     4.117000000    -1.115000000
O    -1.419000000     3.318000000     1.108000000
H    -1.973000000     3.003000000     1.822000000
H    -1.844000000     2.994000000     0.314000000
O     0.679000000    -3.803000000     2.867000000
H     0.448000000    -3.913000000     1.945000000
H     0.232000000    -3.000000000     3.132000000
O    -1.676000000    -5.227000000    -3.523000000
H    -2.509000000    -5.215000000    -3.995000000
H    -1.872000000    -4.811000000    -2.683000000
O    -4.873000000    -2.561000000     2.136000000
H    -5.803000000    -2.354000000     2.040000000
H    -4.429000000    -1.718000000     2.042000000
O     0.722000000    -4.461000000     7.696000000
H     1.121000000    -4.065000000     8.471000000
H     0.527000000    -3.721000000     7.122000000
O    -1.992000000     5.157000000     2.969000000
H    -1.243000000     5.533000000     3.432000000
H    -1.612000000     4.748000000     2.191000000
O    -3.253000000     1.008000000    -3.349000000
H    -4.111000000     0.816000000    -2.970000000
H    -3.063000000     0.253000000    -3.905000000
O     1.905000000     5.802000000    -3.831000000
H     2.706000000     6.105000000    -3.403000000
H     2.024000000     4.856000000    -3.917000000
O    -0.739000000     2.675000000    -3.417000000
H    -0.317000000     3.095000000    -2.668000000
H    -1.494000000     2.221000000    -3.042000000
O     2.720000000     3.184000000    -4.295000000
H     2.170000000     2.474000000    -4.625000000
H     3.590000000     2.793000000    -4.212000000
O    -1.778000000     2.862000000    -5.882000000
H    -1.517000000     2.866000000    -4.961000000
H    -1.064000000     3.312000000    -6.334000000
O     3.214000000    -1.311000000    -2.009000000
H     2.548000000    -0.873000000    -1.479000000
H     3.531000000    -2.024000000    -1.455000000
O     4.873000000     3.732000000     3.685000000
H     5.625000000     3.151000000     3.572000000
H     4.118000000     3.198000000     3.437000000
O    -4.532000000     0.132000000     3.029000000
H    -5.431000000     0.458000000     3.065000000
H    -4.017000000     0.881000000     2.728000000
O    -1.826000000     0.243000000    -7.281000000
H    -0.907000000     0.122000000    -7.521000000
H    -1.819000000     0.983000000    -6.673000000
O    -2.771000000    -1.549000000     7.116000000
H    -2.736000000    -1.090000000     6.277000000
H    -2.982000000    -2.454000000     6.885000000
O     1.360000000     1.079000000    -5.147000000
H     0.996000000     0.711000000    -5.952000000
H     0.631000000     1.069000000    -4.527000000
O     2.866000000    -1.153000000     3.805000000
H     2.997000000    -2.101000000     3.825000000
H     1.943000000    -1.034000000     4.030000000
O    -4.177000000    -1.986000000    -3.253000000
H    -4.699000000    -2.651000000    -3.702000000
H    -3.374000000    -1.922000000    -3.771000000
O     3.056000000    -3.753000000     3.847000000
H     2.842000000    -4.356000000     4.559000000
H     2.261000000    -3.718000000     3.315000000
O     0.362000000    -2.089000000    -6.458000000
H     1.225000000    -1.819000000    -6.144000000
H     0.458000000    -2.142000000    -7.409000000
O    -2.763000000    -1.483000000     4.370000000
H    -1.922000000    -1.350000000     3.932000000
H    -3.416000000    -1.249000000     3.710000000
O     0.581000000    -3.543000000     0.007000000
H     0.289000000    -2.654000000     0.210000000
H     1.180000000    -3.436000000    -0.732000000
O     2.517000000    -1.729000000    -4.738000000
H     2.725000000    -1.610000000    -3.811000000
H     3.255000000    -1.334000000    -5.202000000
O    -2.207000000    -4.672000000    -0.994000000
H    -1.694000000    -4.429000000    -0.223000000
H    -3.038000000    -4.211000000    -0.883000000
O    -3.009000000    -4.241000000     5.068000000
H    -3.871000000    -4.526000000     5.372000000
H    -3.129000000    -3.320000000     4.837000000
O    -1.308000000     4.439000000     6.608000000
H    -2.151000000     4.795000000     6.329000000
H    -1.326000000     3.527000000     6.319000000
O     3.956000000    -1.926000000     1.329000000
H     3.824000000    -2.874000000     1.320000000
H     3.619000000    -1.645000000     2.180000000
O    -2.290000000    -1.015000000    -4.862000000
H    -1.472000000    -1.499000000    -4.974000000
H    -2.385000000    -0.515000000    -5.673000000
O     0.109000000    -4.814000000    -5.611000000
H     0.108000000    -3.867000000    -5.753000000
H    -0.405000000    -4.936000000    -4.813000000
