158
-3029.34971
C    -1.034000000    -0.532000000     1.025000000
H    -1.885000000    -0.892000000     1.597000000
C    -1.265000000    -0.332000000    -0.354000000
H    -2.285000000    -0.377000000    -0.725000000
C    -0.211000000     0.051000000    -1.168000000
H    -0.347000000     0.181000000    -2.227000000
C     1.032000000     0.169000000    -0.655000000
H     1.830000000     0.414000000    -1.351000000
C     1.288000000     0.110000000     0.667000000
H     2.249000000     0.422000000     1.067000000
C     0.255000000    -0.345000000     1.567000000
C     0.501000000    -0.084000000     3.038000000
O    -0.450000000    -0.158000000     3.778000000
O     1.571000000     0.405000000     3.418000000
O     4.229000000     3.632000000     0.653000000
H     3.289000000     3.458000000     0.714000000
H     4.565000000     3.438000000     1.528000000
O    -3.706000000     2.262000000     0.713000000
H    -4.164000000     2.103000000    -0.112000000
H    -4.279000000     1.887000000     1.381000000
O     3.280000000    -1.566000000    -4.673000000
H     3.766000000    -2.246000000    -5.140000000
H     3.236000000    -1.881000000    -3.770000000
O    -0.206000000     2.591000000     5.114000000
H    -1.124000000     2.380000000     5.281000000
H     0.067000000     1.961000000     4.447000000
O     3.570000000     1.799000000     7.576000000
H     2.613000000     1.809000000     7.581000000
H     3.808000000     2.095000000     6.697000000
O     5.153000000    -3.526000000     0.748000000
H     4.260000000    -3.429000000     1.077000000
H     5.149000000    -4.364000000     0.286000000
O     5.832000000     2.054000000    -3.130000000
H     5.562000000     2.629000000    -2.414000000
H     5.318000000     1.256000000    -3.003000000
O     4.753000000    -2.659000000     4.297000000
H     4.470000000    -3.006000000     5.144000000
H     5.577000000    -3.111000000     4.117000000
O     1.574000000    -0.648000000     5.962000000
H     1.377000000    -0.250000000     5.114000000
H     1.145000000    -0.079000000     6.600000000
O     3.025000000     2.824000000     4.059000000
H     2.430000000     3.504000000     4.376000000
H     2.454000000     2.087000000     3.845000000
O    -2.764000000    -4.291000000     3.117000000
H    -3.676000000    -4.468000000     2.886000000
H    -2.328000000    -4.150000000     2.277000000
O     1.495000000     3.880000000     0.906000000
H     0.632000000     3.490000000     0.765000000
H     1.330000000     4.623000000     1.486000000
O     1.533000000     4.594000000     5.750000000
H     1.683000000     4.540000000     6.694000000
H     0.715000000     4.118000000     5.609000000
O    -5.285000000    -0.070000000    -1.114000000
H    -4.712000000     0.472000000    -1.658000000
H    -6.029000000     0.497000000    -0.912000000
O     6.470000000     1.389000000     0.110000000
H     6.239000000     2.281000000     0.370000000
H     6.204000000     0.847000000     0.853000000
O    -5.544000000     1.539000000     2.777000000
H    -6.467000000     1.292000000     2.825000000
H    -5.393000000     2.056000000     3.569000000
O     2.465000000     4.808000000    -1.707000000
H     3.366000000     4.588000000    -1.944000000
H     2.314000000     4.344000000    -0.884000000
O    -0.996000000     2.803000000     0.734000000
H    -0.657000000     1.908000000     0.734000000
H    -1.946000000     2.700000000     0.781000000
O    -1.408000000    -2.911000000     5.097000000
H    -0.949000000    -2.194000000     4.660000000
H    -1.819000000    -3.401000000     4.385000000
O    -1.734000000    -4.138000000    -5.051000000
H    -2.343000000    -4.710000000    -5.518000000
H    -2.271000000    -3.402000000    -4.759000000
O    -3.653000000    -1.952000000    -4.561000000
H    -3.844000000    -1.140000000    -5.031000000
H    -4.268000000    -2.589000000    -4.923000000
O     0.613000000    -4.341000000     6.529000000
H     0.863000000    -3.877000000     7.328000000
H     0.014000000    -3.742000000     6.083000000
O    -3.649000000     1.641000000    -2.262000000
H    -4.332000000     1.775000000    -2.920000000
H    -2.929000000     1.234000000    -2.744000000
O    -1.933000000     4.117000000    -2.673000000
H    -1.957000000     3.393000000    -2.047000000
H    -2.850000000     4.368000000    -2.785000000
O    -3.421000000     2.420000000    -5.815000000
H    -2.756000000     2.946000000    -6.260000000
H    -2.938000000     1.671000000    -5.465000000
O     4.320000000    -0.196000000    -1.918000000
H     4.535000000     0.166000000    -1.058000000
H     4.053000000    -1.098000000    -1.738000000
O     5.706000000     3.393000000     3.339000000
H     6.265000000     3.267000000     4.106000000
H     5.016000000     2.736000000     3.435000000
O    -4.816000000    -0.974000000     1.552000000
H    -4.830000000    -0.269000000     2.200000000
H    -5.255000000    -0.604000000     0.786000000
O    -2.827000000    -0.847000000     7.767000000
H    -2.154000000    -0.438000000     8.311000000
H    -2.835000000    -0.327000000     6.964000000
O     2.828000000    -2.862000000    -1.980000000
H     2.378000000    -3.694000000    -2.127000000
H     2.961000000    -2.826000000    -1.033000000
O     2.756000000    -2.577000000     1.065000000
H     2.568000000    -2.752000000     1.987000000
H     1.900000000    -2.599000000     0.637000000
O     4.333000000    -1.060000000     6.725000000
H     3.466000000    -0.814000000     6.401000000
H     4.748000000    -0.228000000     6.952000000
O     3.942000000     0.667000000    -6.491000000
H     4.886000000     0.644000000    -6.648000000
H     3.790000000    -0.022000000    -5.845000000
O    -0.077000000     4.433000000    -5.219000000
H     0.436000000     3.630000000    -5.128000000
H    -0.642000000     4.445000000    -4.446000000
O     4.349000000    -0.106000000     3.507000000
H     4.617000000    -0.993000000     3.747000000
H     3.503000000     0.012000000     3.939000000
O    -3.548000000    -2.761000000    -1.588000000
H    -3.435000000    -2.711000000    -2.537000000
H    -4.096000000    -2.006000000    -1.373000000
O     2.003000000    -2.998000000     3.623000000
H     2.946000000    -3.087000000     3.760000000
H     1.695000000    -2.509000000     4.387000000
O     0.631000000     1.331000000     7.834000000
H     0.494000000     2.000000000     7.163000000
H    -0.151000000     1.381000000     8.384000000
O     0.639000000     0.232000000    -5.355000000
H     0.977000000     0.894000000    -4.752000000
H     1.402000000    -0.303000000    -5.575000000
O    -2.512000000     0.868000000     5.561000000
H    -2.164000000     0.582000000     4.716000000
H    -3.459000000     0.751000000     5.481000000
O     0.424000000    -2.997000000    -0.268000000
H    -0.141000000    -2.231000000    -0.170000000
H     0.398000000    -3.196000000    -1.204000000
O     1.941000000     2.105000000    -3.941000000
H     2.571000000     2.321000000    -4.629000000
H     2.344000000     2.432000000    -3.137000000
O    -2.266000000    -3.805000000     0.603000000
H    -1.424000000    -3.734000000     0.153000000
H    -2.875000000    -3.315000000     0.050000000
O    -4.001000000    -2.005000000     3.818000000
H    -3.530000000    -2.825000000     3.667000000
H    -4.217000000    -1.688000000     2.941000000
O     4.409000000    -0.471000000     0.686000000
H     4.500000000    -0.165000000     1.589000000
H     3.813000000    -1.218000000     0.746000000
O    -1.886000000     0.368000000    -4.601000000
H    -0.940000000     0.277000000    -4.713000000
H    -2.184000000    -0.507000000    -4.351000000
O     0.379000000    -2.779000000    -6.261000000
H     1.092000000    -2.742000000    -5.624000000
H    -0.355000000    -3.159000000    -5.778000000
O    -1.136000000     0.247000000    -7.653000000
H    -0.682000000     0.044000000    -6.835000000
H    -0.806000000     1.110000000    -7.903000000
