158
-3030.06586
C     1.418000000     0.213000000     0.271000000
H     2.500000000     0.319000000     0.270000000
C     0.858000000    -0.058000000    -0.998000000
H     1.406000000    -0.199000000    -1.927000000
C    -0.503000000    -0.177000000    -1.036000000
H    -0.952000000    -0.208000000    -1.974000000
C    -1.284000000    -0.166000000     0.079000000
H    -2.356000000    -0.335000000     0.016000000
C    -0.747000000     0.129000000     1.276000000
H    -1.341000000     0.088000000     2.185000000
C     0.648000000     0.261000000     1.436000000
C     1.357000000     0.567000000     2.765000000
O     2.482000000     0.230000000     2.963000000
O     0.669000000     0.808000000     3.728000000
O    -1.066000000     4.811000000     2.698000000
H    -0.616000000     4.999000000     1.874000000
H    -0.413000000     4.993000000     3.374000000
O    -2.709000000    -0.871000000    -3.898000000
H    -2.086000000    -1.550000000    -3.639000000
H    -3.568000000    -1.271000000    -3.767000000
O     3.691000000     3.251000000    -1.501000000
H     3.334000000     2.632000000    -2.137000000
H     3.793000000     4.067000000    -1.991000000
O     2.672000000    -3.718000000    -1.929000000
H     2.488000000    -4.275000000    -2.686000000
H     2.223000000    -4.148000000    -1.201000000
O    -2.963000000     2.454000000    -2.137000000
H    -3.607000000     2.891000000    -1.580000000
H    -3.475000000     1.832000000    -2.653000000
O     0.386000000     5.328000000     0.645000000
H     0.074000000     4.543000000     0.194000000
H     1.268000000     5.467000000     0.301000000
O     0.581000000     1.154000000    -6.013000000
H    -0.208000000     1.366000000    -5.514000000
H     0.517000000     0.213000000    -6.173000000
O    -1.196000000    -3.149000000    -4.058000000
H    -0.445000000    -3.709000000    -3.859000000
H    -1.939000000    -3.590000000    -3.646000000
O     2.414000000    -1.014000000     7.680000000
H     2.129000000    -1.810000000     7.231000000
H     1.793000000    -0.343000000     7.397000000
O     3.758000000     0.441000000    -2.503000000
H     3.970000000    -0.307000000    -1.945000000
H     4.370000000     0.374000000    -3.237000000
O     0.588000000    -5.328000000    -1.201000000
H     0.022000000    -4.556000000    -1.223000000
H     0.063000000    -6.022000000    -1.599000000
O     0.309000000    -1.851000000     4.411000000
H     0.382000000    -0.910000000     4.254000000
H     1.175000000    -2.110000000     4.726000000
O     0.534000000     4.854000000     4.735000000
H     0.994000000     4.090000000     5.084000000
H     0.693000000     5.544000000     5.379000000
O    -2.222000000    -0.215000000    -6.501000000
H    -2.421000000    -0.621000000    -5.657000000
H    -3.078000000    -0.067000000    -6.903000000
O     4.852000000     1.235000000     2.656000000
H     3.962000000     0.883000000     2.632000000
H     5.414000000     0.476000000     2.503000000
O     4.798000000     0.498000000     6.782000000
H     4.342000000    -0.314000000     7.005000000
H     4.223000000     0.930000000     6.151000000
O    -1.053000000    -3.403000000    -0.432000000
H    -0.855000000    -2.475000000    -0.554000000
H    -1.197000000    -3.496000000     0.510000000
O     2.046000000     3.495000000     6.931000000
H     2.531000000     3.035000000     6.246000000
H     2.300000000     3.054000000     7.742000000
O     4.629000000     3.518000000     1.050000000
H     4.085000000     3.246000000     0.311000000
H     4.998000000     2.702000000     1.389000000
O    -1.530000000     1.893000000    -4.380000000
H    -1.770000000     0.967000000    -4.393000000
H    -1.765000000     2.189000000    -3.500000000
O    -0.437000000     4.311000000    -5.211000000
H     0.101000000     4.441000000    -4.430000000
H    -1.219000000     3.861000000    -4.892000000
O    -2.706000000    -2.282000000     2.976000000
H    -1.813000000    -2.478000000     3.261000000
H    -3.261000000    -2.610000000     3.683000000
O     3.132000000    -2.336000000     2.749000000
H     2.850000000    -2.615000000     3.620000000
H     2.997000000    -1.388000000     2.746000000
O    -2.936000000     4.695000000    -4.189000000
H    -2.973000000     3.996000000    -3.536000000
H    -3.237000000     4.282000000    -4.998000000
O    -2.135000000     2.321000000     6.713000000
H    -2.867000000     1.867000000     7.131000000
H    -2.198000000     2.077000000     5.789000000
O    -4.483000000     0.141000000     3.135000000
H    -3.756000000    -0.449000000     2.937000000
H    -4.099000000     1.017000000     3.095000000
O     5.258000000    -3.462000000     1.557000000
H     5.039000000    -4.360000000     1.306000000
H     4.520000000    -3.179000000     2.098000000
O    -4.368000000    -3.356000000     1.051000000
H    -3.763000000    -3.129000000     1.757000000
H    -5.203000000    -3.513000000     1.492000000
O    -0.465000000    -4.285000000     3.060000000
H    -0.266000000    -4.780000000     3.855000000
H     0.030000000    -3.471000000     3.155000000
O     6.549000000    -1.234000000     2.545000000
H     6.185000000    -2.066000000     2.241000000
H     7.454000000    -1.440000000     2.778000000
O     1.049000000     4.144000000    -2.784000000
H     0.694000000     3.680000000    -2.027000000
H     1.733000000     3.565000000    -3.122000000
O     0.534000000     0.640000000     6.555000000
H     0.622000000     1.585000000     6.680000000
H     0.487000000     0.527000000     5.606000000
O    -3.697000000    -4.020000000    -3.197000000
H    -4.501000000    -4.149000000    -3.699000000
H    -3.736000000    -4.682000000    -2.507000000
O     4.501000000    -1.752000000    -1.340000000
H     3.801000000    -2.406000000    -1.342000000
H     4.896000000    -1.828000000    -0.471000000
O     0.433000000    -1.733000000    -5.849000000
H    -0.357000000    -1.969000000    -5.364000000
H     1.055000000    -2.433000000    -5.649000000
O    -1.907000000     2.184000000     3.812000000
H    -1.023000000     1.842000000     3.939000000
H    -1.776000000     3.052000000     3.431000000
O    -6.991000000     1.053000000     2.002000000
H    -6.078000000     0.862000000     2.214000000
H    -7.193000000     1.844000000     2.502000000
O     3.070000000     1.933000000     5.031000000
H     2.342000000     1.605000000     4.502000000
H     3.828000000     1.887000000     4.449000000
O    -0.216000000     2.873000000    -0.712000000
H     0.194000000     2.133000000    -0.265000000
H    -1.030000000     2.517000000    -1.067000000
O     2.484000000    -3.115000000     5.594000000
H     3.332000000    -3.368000000     5.956000000
H     1.989000000    -3.934000000     5.548000000
O     2.511000000     2.353000000    -3.770000000
H     2.801000000     1.485000000    -3.492000000
H     2.114000000     2.210000000    -4.630000000
O    -5.421000000    -2.517000000    -1.217000000
H    -6.152000000    -2.058000000    -0.804000000
H    -4.801000000    -2.670000000    -0.504000000
O    -5.319000000     1.307000000    -4.312000000
H    -5.355000000     0.371000000    -4.114000000
H    -6.230000000     1.552000000    -4.475000000
O    -5.547000000    -1.567000000    -3.701000000
H    -5.466000000    -1.945000000    -2.825000000
H    -5.742000000    -2.315000000    -4.266000000
O     4.668000000    -2.286000000    -4.347000000
H     4.748000000    -2.003000000    -3.436000000
H     3.988000000    -2.959000000    -4.330000000
O     7.308000000     2.861000000     3.163000000
H     6.641000000     2.188000000     3.029000000
H     7.846000000     2.826000000     2.372000000
O    -4.117000000     3.040000000    -6.128000000
H    -4.389000000     2.311000000    -5.570000000
H    -4.866000000     3.192000000    -6.705000000
O    -0.074000000    -2.827000000     7.408000000
H    -0.574000000    -2.264000000     6.817000000
H    -0.265000000    -2.485000000     8.282000000
