158
-3013.89644
C     1.365000000     0.297000000     0.610000000
H     2.405000000     0.377000000     0.917000000
C     0.968000000     0.436000000    -0.717000000
H     1.692000000     0.509000000    -1.524000000
C    -0.347000000     0.204000000    -1.189000000
H    -0.542000000     0.251000000    -2.273000000
C    -1.315000000    -0.228000000    -0.262000000
H    -2.260000000    -0.658000000    -0.586000000
C    -0.932000000    -0.332000000     1.050000000
H    -1.653000000    -0.752000000     1.746000000
C     0.367000000     0.052000000     1.539000000
C     0.716000000    -0.035000000     3.031000000
O     1.790000000     0.373000000     3.504000000
O    -0.195000000    -0.372000000     3.771000000
O    -0.622000000     0.015000000    -6.034000000
H    -0.572000000    -0.512000000    -5.236000000
H    -0.575000000     0.920000000    -5.726000000
O    -0.338000000     0.957000000    -8.453000000
H    -0.293000000     0.442000000    -7.648000000
H    -1.195000000     0.749000000    -8.823000000
O     0.999000000     4.770000000     1.060000000
H     0.762000000     4.609000000     1.974000000
H     0.376000000     4.248000000     0.555000000
O     2.474000000    -2.944000000     2.053000000
H     2.607000000    -2.421000000     1.262000000
H     1.530000000    -2.913000000     2.205000000
O    -0.351000000    -1.945000000     6.943000000
H    -1.057000000    -2.590000000     6.897000000
H     0.448000000    -2.453000000     6.799000000
O    -3.195000000     2.404000000    -3.533000000
H    -3.132000000     1.463000000    -3.697000000
H    -2.498000000     2.787000000    -4.066000000
O     4.178000000     1.326000000    -4.592000000
H     3.488000000     1.681000000    -5.153000000
H     3.995000000     0.388000000    -4.552000000
O     0.529000000    -5.218000000    -2.321000000
H     0.136000000    -6.074000000    -2.152000000
H     0.141000000    -4.641000000    -1.664000000
O     0.342000000    -1.804000000    -3.969000000
H     0.710000000    -2.452000000    -3.369000000
H    -0.533000000    -1.627000000    -3.624000000
O     2.125000000    -2.614000000     8.113000000
H     2.817000000    -3.260000000     7.974000000
H     2.392000000    -1.860000000     7.587000000
O     4.364000000    -1.607000000    -3.019000000
H     3.752000000    -2.344000000    -3.022000000
H     4.445000000    -1.367000000    -2.096000000
O     0.107000000    -5.129000000     1.137000000
H    -0.108000000    -4.567000000     1.882000000
H    -0.420000000    -4.784000000     0.417000000
O    -2.375000000    -0.305000000     5.328000000
H    -1.916000000    -0.914000000     5.906000000
H    -1.764000000    -0.154000000     4.606000000
O    -1.780000000    -0.535000000     8.573000000
H    -1.124000000    -1.011000000     8.063000000
H    -2.448000000    -1.190000000     8.774000000
O    -3.242000000     0.225000000    -7.239000000
H    -2.409000000     0.083000000    -6.791000000
H    -3.568000000     1.052000000    -6.883000000
O     3.248000000     2.696000000     4.145000000
H     2.403000000     2.255000000     4.234000000
H     3.601000000     2.373000000     3.317000000
O    -3.360000000    -3.587000000     3.675000000
H    -3.492000000    -4.385000000     3.164000000
H    -3.203000000    -3.896000000     4.567000000
O    -1.314000000    -3.858000000    -0.799000000
H    -2.219000000    -4.134000000    -0.656000000
H    -1.387000000    -2.984000000    -1.181000000
O     4.004000000     1.954000000    -0.821000000
H     4.718000000     1.847000000    -0.193000000
H     3.391000000     1.250000000    -0.609000000
O     1.852000000     2.411000000    -6.118000000
H     1.009000000     2.472000000    -6.568000000
H     1.709000000     2.857000000    -5.283000000
O    -5.451000000    -1.637000000     2.547000000
H    -4.721000000    -1.769000000     3.152000000
H    -6.217000000    -1.958000000     3.022000000
O     3.733000000    -1.213000000     3.606000000
H     3.286000000    -1.959000000     3.207000000
H     3.068000000    -0.525000000     3.640000000
O    -2.986000000     3.175000000     0.042000000
H    -3.599000000     3.898000000    -0.093000000
H    -3.515000000     2.482000000     0.436000000
O    -0.843000000     3.034000000    -5.193000000
H    -0.316000000     3.371000000    -4.468000000
H    -1.082000000     3.812000000    -5.697000000
O     1.215000000     2.056000000     7.649000000
H     1.031000000     1.588000000     8.464000000
H     1.825000000     1.489000000     7.179000000
O    -4.386000000     2.832000000     4.316000000
H    -3.874000000     2.029000000     4.412000000
H    -3.986000000     3.446000000     4.933000000
O    -0.211000000    -3.448000000     3.239000000
H    -0.681000000    -2.696000000     3.600000000
H     0.487000000    -3.620000000     3.870000000
O     5.075000000     1.125000000     2.600000000
H     5.928000000     0.886000000     2.235000000
H     4.766000000     0.328000000     3.029000000
O    -4.142000000    -4.386000000     0.298000000
H    -4.097000000    -5.137000000     0.889000000
H    -4.843000000    -3.841000000     0.655000000
O     1.102000000     3.705000000    -3.201000000
H     1.830000000     4.230000000    -2.869000000
H     0.728000000     3.293000000    -2.422000000
O     1.853000000    -0.241000000     6.124000000
H     1.023000000    -0.649000000     6.372000000
H     1.748000000    -0.028000000     5.197000000
O    -0.617000000     4.236000000     3.458000000
H    -0.838000000     3.369000000     3.799000000
H    -0.718000000     4.822000000     4.208000000
O    -2.889000000    -1.100000000    -3.439000000
H    -3.164000000    -1.700000000    -4.132000000
H    -3.707000000    -0.754000000    -3.083000000
O     2.557000000    -3.583000000    -3.203000000
H     2.069000000    -4.066000000    -2.536000000
H     2.343000000    -4.027000000    -4.024000000
O    -0.303000000     2.107000000     5.137000000
H    -0.128000000     1.841000000     6.040000000
H    -0.429000000     1.283000000     4.665000000
O    -4.608000000     1.122000000     0.654000000
H    -4.509000000     0.398000000     1.273000000
H    -5.525000000     1.383000000     0.736000000
O    -3.568000000     5.044000000    -2.972000000
H    -4.403000000     5.229000000    -2.542000000
H    -3.556000000     4.092000000    -3.073000000
O     4.510000000     0.253000000     6.007000000
H     3.600000000     0.030000000     5.813000000
H     4.640000000     1.108000000     5.597000000
O    -0.372000000     3.048000000    -0.469000000
H    -1.311000000     2.875000000    -0.413000000
H     0.039000000     2.245000000    -0.146000000
O     1.182000000    -4.372000000     5.467000000
H     1.969000000    -4.237000000     5.995000000
H     0.796000000    -5.177000000     5.814000000
O     3.700000000     4.428000000    -2.079000000
H     3.675000000     3.625000000    -1.558000000
H     4.514000000     4.364000000    -2.579000000
O     6.279000000    -2.312000000     3.943000000
H     6.038000000    -3.146000000     3.541000000
H     5.508000000    -1.757000000     3.823000000
O     4.432000000    -1.456000000    -0.160000000
H     4.745000000    -2.340000000    -0.353000000
H     5.152000000    -1.045000000     0.316000000
O    -6.583000000    -1.856000000    -0.290000000
H    -7.433000000    -2.297000000    -0.322000000
H    -6.449000000    -1.661000000     0.637000000
O    -4.913000000    -0.176000000    -2.087000000
H    -5.265000000    -0.742000000    -1.399000000
H    -4.568000000     0.584000000    -1.618000000
O    -4.078000000    -2.252000000    -5.623000000
H    -4.835000000    -1.769000000    -5.954000000
H    -4.454000000    -3.014000000    -5.182000000
O     6.891000000    -0.613000000     1.456000000
H     6.884000000    -1.452000000     1.917000000
H     7.779000000    -0.538000000     1.107000000
O     2.189000000    -0.710000000    -5.789000000
H     1.806000000     0.120000000    -6.074000000
H     1.523000000    -1.098000000    -5.221000000
