158
-3031.55223
C     1.164000000    -0.609000000     0.640000000
H     1.992000000    -1.076000000     1.169000000
C     0.602000000    -1.118000000    -0.533000000
H     0.945000000    -2.031000000    -1.012000000
C    -0.550000000    -0.455000000    -1.018000000
H    -1.053000000    -0.878000000    -1.848000000
C    -1.078000000     0.628000000    -0.321000000
H    -1.899000000     1.201000000    -0.743000000
C    -0.512000000     1.176000000     0.800000000
H    -0.804000000     2.103000000     1.286000000
C     0.662000000     0.544000000     1.291000000
C     1.369000000     1.192000000     2.435000000
O     0.757000000     1.853000000     3.227000000
O     2.526000000     0.967000000     2.695000000
O     3.745000000    -6.187000000     1.837000000
H     3.791000000    -5.231000000     1.856000000
H     4.634000000    -6.465000000     1.614000000
O    -1.786000000    -1.107000000     2.517000000
H    -1.045000000    -0.845000000     1.971000000
H    -2.383000000    -1.550000000     1.914000000
O     2.416000000     2.711000000     5.419000000
H     1.858000000     3.485000000     5.341000000
H     2.207000000     2.186000000     4.647000000
O     3.851000000    -1.656000000    -3.020000000
H     4.177000000    -1.445000000    -3.895000000
H     3.327000000    -0.895000000    -2.770000000
O     6.968000000    -0.231000000     5.413000000
H     6.104000000     0.180000000     5.370000000
H     7.159000000    -0.289000000     6.349000000
O    -1.899000000    -4.658000000    -1.796000000
H    -1.252000000    -4.197000000    -2.330000000
H    -2.013000000    -5.502000000    -2.232000000
O     1.771000000     3.397000000    -2.619000000
H     1.313000000     3.808000000    -1.886000000
H     2.582000000     3.897000000    -2.706000000
O    -5.490000000    -3.914000000     0.901000000
H    -5.420000000    -3.226000000     0.239000000
H    -4.610000000    -3.978000000     1.273000000
O     4.469000000     3.058000000     7.206000000
H     5.070000000     3.640000000     6.739000000
H     3.757000000     2.901000000     6.585000000
O    -0.407000000     5.138000000    -1.333000000
H    -1.175000000     4.577000000    -1.436000000
H    -0.013000000     4.856000000    -0.507000000
O     2.672000000    -3.744000000     4.938000000
H     2.214000000    -3.241000000     4.265000000
H     2.494000000    -3.273000000     5.752000000
O     2.286000000    -4.078000000    -2.424000000
H     2.900000000    -3.621000000    -3.000000000
H     1.483000000    -4.151000000    -2.941000000
O    -3.556000000     0.840000000    -6.949000000
H    -4.496000000     0.682000000    -7.035000000
H    -3.245000000     0.133000000    -6.383000000
O    -3.056000000     3.249000000     2.851000000
H    -3.896000000     3.192000000     2.396000000
H    -2.627000000     4.014000000     2.469000000
O     4.182000000    -3.525000000     1.466000000
H     4.496000000    -3.032000000     0.708000000
H     4.494000000    -3.027000000     2.221000000
O     5.350000000    -3.100000000    -1.085000000
H     4.789000000    -2.520000000    -1.601000000
H     6.193000000    -2.648000000    -1.049000000
O     1.579000000    -3.958000000     1.017000000
H     2.475000000    -4.070000000     1.333000000
H     1.676000000    -3.522000000     0.170000000
O    -2.930000000     4.005000000    -1.774000000
H    -3.700000000     4.563000000    -1.886000000
H    -2.585000000     3.892000000    -2.659000000
O     6.282000000     2.939000000     1.452000000
H     6.237000000     2.029000000     1.158000000
H     5.384000000     3.153000000     1.704000000
O    -3.806000000    -2.837000000    -1.147000000
H    -4.289000000    -2.804000000    -1.973000000
H    -3.136000000    -3.506000000    -1.289000000
O     0.479000000     4.511000000     3.740000000
H     0.263000000     3.593000000     3.581000000
H    -0.017000000     4.992000000     3.077000000
O    -0.298000000    -1.022000000     5.779000000
H     0.099000000    -0.505000000     6.479000000
H    -1.187000000    -0.676000000     5.699000000
O    -0.621000000     2.179000000     5.425000000
H    -1.380000000     1.644000000     5.193000000
H    -0.011000000     2.057000000     4.697000000
O     3.992000000     2.789000000    -0.850000000
H     4.539000000     3.286000000    -1.458000000
H     3.774000000     3.413000000    -0.158000000
O    -2.865000000    -0.972000000    -4.570000000
H    -1.959000000    -1.134000000    -4.834000000
H    -3.254000000    -1.844000000    -4.501000000
O    -2.228000000     3.112000000    -4.468000000
H    -2.991000000     2.559000000    -4.637000000
H    -1.746000000     3.115000000    -5.295000000
O    -6.238000000     3.251000000    -0.814000000
H    -5.583000000     2.559000000    -0.908000000
H    -6.795000000     3.160000000    -1.588000000
O     4.679000000    -2.052000000     3.557000000
H     4.810000000    -1.304000000     4.138000000
H     3.814000000    -2.389000000     3.791000000
O     1.200000000     3.851000000     0.528000000
H     1.548000000     2.986000000     0.310000000
H     1.968000000     4.422000000     0.540000000
O     2.287000000    -6.626000000    -1.422000000
H     2.335000000    -5.719000000    -1.724000000
H     1.973000000    -6.561000000    -0.520000000
O     1.178000000     1.795000000    -6.195000000
H     0.731000000     2.612000000    -6.419000000
H     0.932000000     1.630000000    -5.284000000
O     1.245000000     5.239000000     6.193000000
H     0.444000000     5.490000000     6.653000000
H     0.964000000     5.086000000     5.291000000
O     4.876000000     0.245000000     1.443000000
H     5.348000000    -0.543000000     1.714000000
H     4.115000000     0.279000000     2.023000000
O     0.153000000     1.675000000    -3.757000000
H    -0.610000000     2.252000000    -3.735000000
H     0.855000000     2.191000000    -3.361000000
O     4.215000000    -0.117000000     5.521000000
H     4.184000000    -0.397000000     6.436000000
H     3.628000000     0.638000000     5.481000000
O    -0.909000000    -4.888000000     1.040000000
H    -1.282000000    -4.400000000     0.306000000
H    -0.103000000    -4.419000000     1.255000000
O     1.654000000    -1.650000000     3.609000000
H     0.934000000    -1.406000000     4.190000000
H     2.153000000    -0.841000000     3.494000000
O     3.713000000     3.443000000     2.044000000
H     3.580000000     2.504000000     2.174000000
H     3.139000000     3.857000000     2.689000000
O    -2.628000000     0.992000000     4.210000000
H    -2.692000000     1.728000000     3.602000000
H    -2.311000000     0.265000000     3.673000000
O    -0.434000000    -3.577000000    -4.282000000
H    -0.321000000    -2.667000000    -4.557000000
H    -0.812000000    -4.013000000    -5.046000000
O    -0.192000000    -1.005000000    -5.136000000
H     0.512000000    -0.708000000    -5.713000000
H    -0.126000000    -0.439000000    -4.367000000
O    -4.478000000     0.867000000    -4.191000000
H    -5.264000000     0.397000000    -4.467000000
H    -3.790000000     0.201000000    -4.183000000
O    -4.495000000    -0.535000000     0.127000000
H    -4.373000000     0.074000000    -0.601000000
H    -4.189000000    -1.377000000    -0.211000000
O    -2.442000000     5.907000000     2.011000000
H    -2.119000000     6.489000000     1.324000000
H    -2.882000000     6.489000000     2.631000000
O    -4.716000000    -3.062000000    -3.815000000
H    -5.216000000    -2.823000000    -4.596000000
H    -4.833000000    -4.009000000    -3.738000000
O     0.896000000     3.007000000     8.081000000
H     0.909000000     2.062000000     7.930000000
H     0.580000000     3.377000000     7.257000000
O    -4.216000000     1.586000000    -1.488000000
H    -3.614000000     2.327000000    -1.556000000
H    -4.422000000     1.360000000    -2.395000000
O     2.922000000     0.747000000    -2.087000000
H     1.977000000     0.644000000    -1.976000000
H     3.138000000     1.536000000    -1.589000000
