158
-3040.93397
C     0.626000000    -0.936000000     0.903000000
H     1.087000000    -1.791000000     1.391000000
C     0.659000000    -0.951000000    -0.486000000
H     1.209000000    -1.704000000    -1.043000000
C    -0.037000000    -0.010000000    -1.263000000
H     0.076000000     0.051000000    -2.346000000
C    -0.618000000     1.019000000    -0.566000000
H    -0.973000000     1.883000000    -1.121000000
C    -0.654000000     1.054000000     0.854000000
H    -1.099000000     1.873000000     1.414000000
C    -0.052000000     0.040000000     1.592000000
C    -0.052000000     0.079000000     3.109000000
O     0.329000000    -0.878000000     3.696000000
O    -0.494000000     1.057000000     3.639000000
O    -2.093000000    -0.996000000    -7.485000000
H    -1.350000000    -0.455000000    -7.218000000
H    -1.740000000    -1.885000000    -7.529000000
O     3.659000000    -4.686000000    -1.758000000
H     3.786000000    -4.029000000    -1.073000000
H     2.900000000    -4.376000000    -2.250000000
O     2.417000000     5.435000000     2.504000000
H     1.749000000     6.090000000     2.709000000
H     2.023000000     4.602000000     2.761000000
O     2.752000000    -1.800000000     3.204000000
H     3.322000000    -1.142000000     2.807000000
H     1.884000000    -1.396000000     3.205000000
O     3.391000000    -5.323000000     2.066000000
H     3.356000000    -5.196000000     3.014000000
H     4.227000000    -5.762000000     1.913000000
O    -3.049000000     4.719000000    -3.884000000
H    -3.867000000     4.462000000    -3.458000000
H    -3.234000000     5.580000000    -4.259000000
O    -3.531000000     4.334000000     5.806000000
H    -4.196000000     3.651000000     5.889000000
H    -2.973000000     4.040000000     5.086000000
O     1.373000000    -4.994000000     0.086000000
H     2.069000000    -5.030000000     0.742000000
H     1.430000000    -5.833000000    -0.370000000
O    -1.344000000    -2.364000000    -4.562000000
H    -1.804000000    -2.420000000    -5.399000000
H    -0.689000000    -3.061000000    -4.601000000
O     1.001000000     1.579000000     5.704000000
H     1.464000000     0.779000000     5.949000000
H     0.365000000     1.296000000     5.046000000
O    -4.397000000     2.844000000     0.752000000
H    -3.776000000     2.377000000     0.193000000
H    -5.020000000     2.173000000     1.031000000
O    -3.072000000    -1.345000000     6.296000000
H    -3.643000000    -0.736000000     6.765000000
H    -2.547000000    -1.758000000     6.982000000
O     1.709000000     2.770000000     2.998000000
H     2.606000000     2.699000000     3.327000000
H     1.164000000     2.454000000     3.718000000
O    -0.876000000    -3.314000000     3.175000000
H    -0.365000000    -2.523000000     3.349000000
H    -0.832000000    -3.812000000     3.991000000
O    -1.405000000     5.388000000    -1.233000000
H    -1.003000000     6.224000000    -1.469000000
H    -2.063000000     5.238000000    -1.912000000
O    -2.762000000    -0.119000000     3.917000000
H    -1.906000000     0.307000000     3.949000000
H    -2.749000000    -0.740000000     4.645000000
O    -4.994000000     2.741000000    -5.624000000
H    -4.886000000     1.876000000    -6.020000000
H    -4.544000000     2.676000000    -4.782000000
O     4.033000000     0.019000000     1.663000000
H     4.884000000    -0.080000000     1.236000000
H     3.902000000     0.966000000     1.719000000
O    -4.940000000     3.248000000    -2.376000000
H    -4.726000000     2.513000000    -1.801000000
H    -5.764000000     3.591000000    -2.030000000
O     3.723000000    -3.944000000     4.883000000
H     2.943000000    -4.498000000     4.922000000
H     3.481000000    -3.231000000     4.292000000
O    -0.762000000     4.661000000     1.467000000
H     0.103000000     4.255000000     1.404000000
H    -0.972000000     4.918000000     0.569000000
O    -1.726000000     2.325000000    -4.115000000
H    -1.232000000     2.501000000    -4.916000000
H    -2.156000000     3.156000000    -3.912000000
O    -0.424000000     5.178000000    -5.056000000
H     0.201000000     4.752000000    -4.469000000
H    -1.164000000     5.404000000    -4.493000000
O    -4.667000000    -4.088000000    -3.659000000
H    -3.921000000    -3.662000000    -4.081000000
H    -4.957000000    -4.745000000    -4.292000000
O     3.709000000    -2.459000000     0.005000000
H     4.517000000    -2.481000000     0.518000000
H     3.086000000    -1.989000000     0.560000000
O     4.244000000     2.760000000    -1.304000000
H     3.562000000     2.568000000    -0.660000000
H     5.065000000     2.606000000    -0.836000000
O     3.436000000     2.093000000    -5.518000000
H     2.528000000     2.248000000    -5.779000000
H     3.370000000     1.550000000    -4.732000000
O     1.505000000    -1.119000000     6.062000000
H     1.035000000    -1.688000000     6.672000000
H     1.156000000    -1.350000000     5.202000000
O     0.846000000     0.999000000    -8.237000000
H     0.496000000     1.690000000    -7.674000000
H     1.077000000     1.447000000    -9.051000000
O    -2.921000000    -3.218000000     0.735000000
H    -2.199000000    -3.317000000     1.356000000
H    -3.455000000    -2.512000000     1.099000000
O     2.863000000    -2.500000000    -4.636000000
H     3.062000000    -2.141000000    -3.771000000
H     2.087000000    -3.044000000    -4.497000000
O     3.964000000    -1.576000000    -2.356000000
H     4.103000000    -1.675000000    -1.414000000
H     4.830000000    -1.711000000    -2.741000000
O     2.857000000    -0.797000000    -7.256000000
H     2.805000000    -0.422000000    -6.376000000
H     2.151000000    -0.370000000    -7.740000000
O    -1.611000000     3.724000000     3.783000000
H    -1.308000000     2.824000000     3.662000000
H    -1.332000000     4.180000000     2.988000000
O    -2.807000000    -0.177000000    -3.379000000
H    -2.138000000    -0.716000000    -3.800000000
H    -2.562000000     0.723000000    -3.594000000
O    -3.577000000    -0.531000000     1.513000000
H    -2.882000000    -0.164000000     0.968000000
H    -3.258000000    -0.428000000     2.410000000
O     4.162000000    -0.223000000     6.211000000
H     4.217000000    -0.035000000     7.148000000
H     3.242000000    -0.438000000     6.063000000
O     3.346000000     0.983000000    -3.011000000
H     3.511000000     0.051000000    -2.870000000
H     3.968000000     1.426000000    -2.435000000
O    -0.310000000     4.135000000     6.297000000
H    -1.081000000     4.059000000     5.734000000
H     0.231000000     3.380000000     6.065000000
O    -5.333000000    -1.073000000    -4.234000000
H    -4.442000000    -0.813000000    -4.001000000
H    -5.680000000    -1.478000000    -3.439000000
O     2.224000000     2.189000000     0.411000000
H     1.828000000     2.320000000     1.273000000
H     1.692000000     1.504000000     0.005000000
O    -4.061000000     0.722000000    -1.084000000
H    -4.930000000     0.320000000    -1.092000000
H    -3.596000000     0.302000000    -1.808000000
O    -0.842000000    -3.980000000    -1.278000000
H    -1.580000000    -3.461000000    -0.959000000
H    -0.205000000    -3.954000000    -0.565000000
O     0.595000000    -4.427000000    -3.696000000
H    -0.052000000    -4.148000000    -3.049000000
H     0.788000000    -5.336000000    -3.466000000
O     0.805000000     3.653000000    -3.017000000
H     0.601000000     4.097000000    -2.194000000
H     0.269000000     2.860000000    -3.000000000
O    -0.853000000     2.704000000    -6.786000000
H    -1.687000000     2.544000000    -7.229000000
H    -0.926000000     3.598000000    -6.454000000
O    -5.210000000     4.535000000     2.615000000
H    -4.698000000     5.320000000     2.419000000
H    -4.696000000     3.816000000     2.249000000
O    -4.480000000     1.751000000     4.857000000
H    -3.929000000     2.140000000     4.178000000
H    -4.221000000     0.829000000     4.876000000
