158
-3005.55930
C     0.817000000    -0.574000000     1.005000000
H     1.478000000    -1.109000000     1.683000000
C     1.237000000    -0.321000000    -0.274000000
H     2.246000000    -0.616000000    -0.552000000
C     0.385000000     0.300000000    -1.114000000
H     0.693000000     0.569000000    -2.175000000
C    -0.950000000     0.563000000    -0.760000000
H    -1.644000000     0.971000000    -1.491000000
C    -1.397000000     0.151000000     0.510000000
H    -2.416000000     0.404000000     0.790000000
C    -0.485000000    -0.304000000     1.423000000
C    -0.923000000    -0.601000000     2.865000000
O    -0.009000000    -0.800000000     3.628000000
O    -2.058000000    -0.803000000     3.205000000
O    -0.274000000     0.358000000     6.185000000
H    -0.308000000    -0.096000000     5.343000000
H     0.124000000    -0.274000000     6.783000000
O    -0.211000000    -2.216000000    -2.895000000
H     0.521000000    -1.668000000    -2.610000000
H    -0.693000000    -2.409000000    -2.090000000
O     0.746000000    -2.337000000    -6.168000000
H     1.307000000    -1.767000000    -5.642000000
H    -0.146000000    -2.078000000    -5.933000000
O    -5.086000000     1.091000000     0.127000000
H    -5.442000000     0.378000000     0.658000000
H    -5.720000000     1.200000000    -0.582000000
O     6.055000000     0.088000000     0.011000000
H     6.943000000    -0.224000000     0.185000000
H     5.684000000    -0.565000000    -0.583000000
O    -4.058000000    -1.024000000    -1.893000000
H    -3.678000000    -0.584000000    -2.653000000
H    -4.380000000    -0.312000000    -1.340000000
O     2.977000000     5.922000000    -2.785000000
H     2.442000000     6.641000000    -2.447000000
H     2.529000000     5.644000000    -3.583000000
O    -3.832000000     1.078000000     4.131000000
H    -4.008000000     1.528000000     3.305000000
H    -3.138000000     0.452000000     3.920000000
O    -2.046000000    -2.536000000    -0.710000000
H    -1.846000000    -1.930000000     0.003000000
H    -2.731000000    -2.096000000    -1.214000000
O     4.878000000     2.238000000     1.066000000
H     5.414000000     1.678000000     0.504000000
H     4.928000000     3.104000000     0.659000000
O    -2.615000000     4.043000000     4.505000000
H    -2.628000000     3.782000000     3.584000000
H    -3.284000000     3.498000000     4.918000000
O    -6.228000000    -0.867000000     1.334000000
H    -6.187000000    -1.005000000     2.281000000
H    -5.634000000    -1.524000000     0.971000000
O    -5.710000000    -0.980000000     4.062000000
H    -5.188000000    -0.348000000     4.557000000
H    -5.631000000    -1.796000000     4.557000000
O     2.383000000     0.215000000     7.084000000
H     3.293000000     0.402000000     6.854000000
H     1.907000000     1.009000000     6.842000000
O     3.182000000    -4.113000000     1.736000000
H     3.866000000    -3.541000000     1.389000000
H     2.898000000    -3.685000000     2.543000000
O     1.660000000    -3.786000000     7.561000000
H     1.341000000    -3.244000000     6.840000000
H     1.638000000    -3.208000000     8.324000000
O    -1.810000000     3.973000000     0.267000000
H    -1.995000000     4.431000000     1.087000000
H    -1.089000000     3.381000000     0.481000000
O    -0.528000000    -4.465000000     0.659000000
H    -1.107000000    -4.003000000     0.053000000
H    -0.799000000    -4.164000000     1.526000000
O     4.491000000    -1.358000000    -2.382000000
H     4.749000000    -2.160000000    -1.928000000
H     5.199000000    -1.197000000    -3.005000000
O    -4.118000000    -2.491000000     7.800000000
H    -3.821000000    -2.145000000     6.959000000
H    -3.807000000    -3.397000000     7.810000000
O    -0.831000000    -5.318000000     5.905000000
H    -0.284000000    -5.661000000     5.199000000
H    -0.505000000    -4.430000000     6.051000000
O     3.785000000     0.593000000     2.854000000
H     4.055000000     1.301000000     2.269000000
H     2.828000000     0.621000000     2.838000000
O    -1.013000000     1.738000000    -6.650000000
H    -1.740000000     1.563000000    -7.246000000
H    -0.335000000     2.123000000    -7.205000000
O    -3.837000000    -4.623000000     3.874000000
H    -3.918000000    -5.357000000     4.484000000
H    -4.245000000    -3.887000000     4.330000000
O    -1.376000000    -3.551000000     3.086000000
H    -1.560000000    -2.611000000     3.091000000
H    -2.216000000    -3.960000000     3.293000000
O     4.276000000    -1.425000000     5.041000000
H     4.425000000    -0.582000000     4.613000000
H     3.467000000    -1.753000000     4.649000000
O    -3.579000000     2.981000000    -2.507000000
H    -2.820000000     2.535000000    -2.882000000
H    -3.754000000     2.511000000    -1.691000000
O    -4.053000000     3.080000000     2.356000000
H    -4.781000000     3.701000000     2.380000000
H    -4.001000000     2.807000000     1.440000000
O     2.467000000    -3.525000000    -3.393000000
H     1.976000000    -3.708000000    -2.592000000
H     2.417000000    -2.574000000    -3.492000000
O    -2.463000000    -3.793000000    -3.930000000
H    -2.888000000    -3.297000000    -4.629000000
H    -1.693000000    -3.273000000    -3.700000000
O     0.769000000     2.618000000     0.668000000
H     0.615000000     1.811000000     0.178000000
H     1.395000000     3.107000000     0.134000000
O    -3.068000000    -0.095000000    -4.436000000
H    -2.186000000     0.268000000    -4.508000000
H    -3.637000000     0.585000000    -4.796000000
O    -2.289000000     1.436000000     7.662000000
H    -1.979000000     1.231000000     8.544000000
H    -1.561000000     1.195000000     7.089000000
O    -4.667000000     1.829000000    -5.041000000
H    -4.415000000     2.483000000    -5.692000000
H    -4.616000000     2.291000000    -4.204000000
O    -5.156000000    -2.954000000    -0.088000000
H    -5.980000000    -3.318000000    -0.411000000
H    -4.714000000    -2.630000000    -0.873000000
O    -1.332000000     2.132000000    -3.683000000
H    -0.818000000     2.929000000    -3.550000000
H    -1.101000000     1.843000000    -4.567000000
O     1.674000000    -4.316000000    -0.626000000
H     2.287000000    -4.241000000     0.104000000
H     0.814000000    -4.385000000    -0.211000000
O    -2.763000000    -2.431000000    -6.252000000
H    -3.167000000    -2.351000000    -7.116000000
H    -2.471000000    -1.543000000    -6.042000000
O     2.229000000    -2.788000000     3.966000000
H     1.677000000    -3.499000000     4.289000000
H     1.612000000    -2.150000000     3.606000000
O     2.453000000     3.462000000    -1.430000000
H     3.105000000     4.006000000    -1.870000000
H     2.682000000     2.566000000    -1.676000000
O     0.026000000    -2.516000000     5.992000000
H    -0.102000000    -1.868000000     5.299000000
H    -0.489000000    -2.184000000     6.727000000
O     3.496000000     1.380000000    -3.155000000
H     3.769000000     0.482000000    -2.968000000
H     4.315000000     1.857000000    -3.288000000
O     0.285000000     4.083000000    -3.441000000
H     0.720000000     4.567000000    -4.144000000
H     0.996000000     3.822000000    -2.855000000
O    -1.648000000     5.458000000    -2.311000000
H    -0.932000000     5.158000000    -2.870000000
H    -1.828000000     4.716000000    -1.733000000
O     2.066000000    -0.436000000    -4.767000000
H     2.588000000    -0.118000000    -5.504000000
H     2.325000000     0.121000000    -4.033000000
O     1.647000000     3.760000000     2.790000000
H     1.352000000     3.238000000     2.044000000
H     0.918000000     4.352000000     2.973000000
O     2.199000000     5.897000000     0.521000000
H     2.195000000     5.036000000     0.102000000
H     3.127000000     6.106000000     0.629000000
O    -3.021000000    -1.230000000     5.639000000
H    -2.614000000    -1.458000000     4.804000000
H    -2.768000000    -0.319000000     5.788000000
