158
-3026.47956
C     0.922000000    -0.255000000     1.082000000
H     1.682000000    -0.706000000     1.715000000
C     1.364000000    -0.073000000    -0.201000000
H     2.410000000    -0.156000000    -0.483000000
C     0.382000000     0.270000000    -1.111000000
H     0.695000000     0.439000000    -2.099000000
C    -0.926000000     0.484000000    -0.695000000
H    -1.726000000     0.710000000    -1.395000000
C    -1.274000000     0.229000000     0.559000000
H    -2.306000000     0.396000000     0.857000000
C    -0.378000000    -0.095000000     1.501000000
C    -0.781000000    -0.540000000     2.919000000
O    -0.054000000    -1.173000000     3.646000000
O    -1.985000000    -0.466000000     3.260000000
O     0.260000000     0.894000000     5.604000000
H     0.104000000     0.211000000     4.951000000
H     0.828000000     1.524000000     5.160000000
O     1.341000000    -4.456000000    -2.567000000
H     1.980000000    -4.445000000    -1.855000000
H     0.738000000    -3.742000000    -2.359000000
O     0.859000000    -2.168000000    -5.220000000
H     1.181000000    -3.070000000    -5.212000000
H    -0.077000000    -2.246000000    -5.035000000
O    -4.612000000    -3.040000000     5.923000000
H    -4.416000000    -3.921000000     5.605000000
H    -5.426000000    -2.801000000     5.480000000
O     2.079000000    -3.276000000    -0.123000000
H     1.230000000    -2.834000000    -0.113000000
H     2.333000000    -3.327000000     0.798000000
O    -5.334000000    -1.724000000     0.188000000
H    -5.953000000    -2.007000000     0.861000000
H    -5.852000000    -1.168000000    -0.394000000
O     6.037000000    -1.197000000     1.848000000
H     5.706000000    -0.298000000     1.846000000
H     5.975000000    -1.476000000     0.934000000
O    -3.572000000    -2.795000000    -1.704000000
H    -3.780000000    -2.277000000    -2.481000000
H    -4.213000000    -2.515000000    -1.051000000
O    -2.602000000    -2.350000000    -7.228000000
H    -2.406000000    -1.862000000    -6.428000000
H    -2.641000000    -1.681000000    -7.913000000
O    -3.727000000    -4.881000000     1.486000000
H    -2.965000000    -5.300000000     1.884000000
H    -3.896000000    -4.117000000     2.038000000
O    -3.369000000     1.481000000     4.294000000
H    -4.237000000     1.118000000     4.117000000
H    -2.761000000     0.841000000     3.924000000
O    -0.836000000    -2.844000000    -1.232000000
H    -0.705000000    -1.898000000    -1.292000000
H    -1.770000000    -2.968000000    -1.402000000
O     5.812000000     1.398000000     1.132000000
H     6.130000000     0.892000000     0.384000000
H     6.423000000     2.131000000     1.202000000
O    -5.770000000     0.180000000     3.555000000
H    -6.622000000     0.448000000     3.209000000
H    -5.855000000    -0.762000000     3.699000000
O    -3.615000000    -2.258000000     2.441000000
H    -3.046000000    -1.521000000     2.660000000
H    -4.011000000    -2.015000000     1.603000000
O     2.803000000    -0.633000000     7.616000000
H     3.500000000    -0.496000000     6.975000000
H     2.286000000    -1.355000000     7.258000000
O     2.575000000    -5.608000000     2.639000000
H     3.239000000    -5.086000000     3.090000000
H     2.001000000    -4.961000000     2.227000000
O    -0.802000000     4.067000000     3.647000000
H    -0.771000000     4.019000000     2.692000000
H    -1.735000000     4.071000000     3.857000000
O    -0.705000000    -5.093000000     0.434000000
H    -0.701000000    -4.521000000    -0.334000000
H    -0.592000000    -4.498000000     1.175000000
O     6.296000000    -0.745000000    -0.892000000
H     5.666000000    -1.442000000    -1.075000000
H     7.041000000    -0.939000000    -1.460000000
O     3.216000000     0.220000000     3.855000000
H     3.153000000     0.345000000     2.908000000
H     2.706000000     0.940000000     4.226000000
O    -1.374000000     1.942000000    -6.636000000
H    -1.591000000     2.872000000    -6.571000000
H    -0.972000000     1.850000000    -7.500000000
O    -1.691000000    -5.283000000     4.003000000
H    -1.379000000    -5.892000000     4.672000000
H    -1.992000000    -4.520000000     4.496000000
O     0.381000000    -3.662000000     2.529000000
H     0.250000000    -2.812000000     2.950000000
H    -0.270000000    -4.233000000     2.936000000
O     3.827000000    -3.603000000     5.854000000
H     4.448000000    -2.949000000     6.174000000
H     2.999000000    -3.129000000     5.776000000
O    -3.265000000     3.835000000    -1.883000000
H    -2.582000000     3.186000000    -1.716000000
H    -3.565000000     4.097000000    -1.012000000
O     1.775000000    -0.660000000    -7.304000000
H     1.515000000    -1.333000000    -6.675000000
H     1.248000000    -0.843000000    -8.082000000
O    -4.736000000     3.740000000     0.325000000
H    -4.987000000     4.409000000     0.962000000
H    -4.901000000     2.910000000     0.770000000
O    -4.798000000    -1.331000000    -3.886000000
H    -5.571000000    -1.887000000    -3.800000000
H    -5.080000000    -0.476000000    -3.561000000
O     4.729000000    -2.813000000    -1.312000000
H     3.834000000    -2.887000000    -0.980000000
H     4.979000000    -3.711000000    -1.530000000
O     0.814000000     3.753000000    -4.279000000
H     1.298000000     2.952000000    -4.079000000
H     0.863000000     3.830000000    -5.232000000
O     3.902000000    -2.883000000     3.193000000
H     4.798000000    -2.642000000     2.957000000
H     3.998000000    -3.419000000     3.980000000
O     2.100000000     0.805000000    -4.339000000
H     1.795000000    -0.024000000    -3.971000000
H     2.064000000     0.674000000    -5.287000000
O     1.307000000     3.231000000     1.587000000
H     0.619000000     2.658000000     1.249000000
H     2.079000000     3.013000000     1.065000000
O    -2.107000000    -1.463000000    -4.718000000
H    -3.054000000    -1.332000000    -4.666000000
H    -1.734000000    -0.615000000    -4.477000000
O    -1.663000000    -1.069000000     7.525000000
H    -1.054000000    -0.357000000     7.719000000
H    -1.526000000    -1.256000000     6.596000000
O    -4.616000000     1.615000000    -3.531000000
H    -4.216000000     1.749000000    -4.390000000
H    -4.169000000     2.238000000    -2.959000000
O    -1.475000000     1.170000000    -4.098000000
H    -0.918000000     1.767000000    -3.598000000
H    -1.344000000     1.429000000    -5.010000000
O    -4.945000000     1.045000000     0.907000000
H    -5.570000000     0.505000000     0.423000000
H    -5.063000000     0.787000000     1.821000000
O     1.614000000    -2.300000000     5.640000000
H     0.762000000    -2.706000000     5.801000000
H     1.491000000    -1.797000000     4.835000000
O     2.951000000     2.831000000    -0.769000000
H     3.528000000     2.070000000    -0.842000000
H     3.458000000     3.553000000    -1.141000000
O    -0.578000000    -3.994000000     6.991000000
H    -1.173000000    -3.499000000     6.427000000
H    -0.921000000    -3.862000000     7.875000000
O    -2.074000000     2.644000000     6.582000000
H    -2.419000000     2.392000000     5.726000000
H    -1.335000000     2.053000000     6.727000000
O     4.910000000     1.225000000    -4.168000000
H     4.801000000     1.930000000    -4.806000000
H     4.018000000     0.940000000    -3.971000000
O     0.307000000     4.032000000    -1.608000000
H     0.195000000     4.116000000    -2.555000000
H     1.186000000     3.669000000    -1.503000000
O    -1.608000000     4.395000000     0.919000000
H    -1.168000000     4.633000000     0.103000000
H    -2.412000000     3.957000000     0.638000000
O     1.908000000     2.471000000     4.297000000
H     1.461000000     2.713000000     3.486000000
H     1.885000000     3.266000000     4.830000000
O    -2.015000000    -2.862000000     5.076000000
H    -1.714000000    -2.020000000     4.735000000
H    -2.965000000    -2.767000000     5.144000000
