158
-3035.42068
C     1.329000000     0.005000000     0.743000000
H     2.314000000    -0.068000000     1.199000000
C     1.153000000     0.185000000    -0.648000000
H     1.928000000     0.342000000    -1.394000000
C    -0.106000000     0.109000000    -1.200000000
H    -0.319000000     0.174000000    -2.284000000
C    -1.199000000    -0.104000000    -0.386000000
H    -2.233000000    -0.098000000    -0.721000000
C    -1.059000000    -0.186000000     0.974000000
H    -1.924000000    -0.318000000     1.618000000
C     0.186000000    -0.059000000     1.544000000
C     0.264000000    -0.318000000     2.999000000
O     1.309000000    -0.567000000     3.425000000
O    -0.677000000    -0.508000000     3.750000000
O     2.085000000     0.998000000     5.578000000
H     1.591000000     0.406000000     5.012000000
H     2.928000000     1.104000000     5.138000000
O    -0.207000000    -2.827000000    -3.993000000
H    -0.286000000    -1.951000000    -4.371000000
H    -0.846000000    -2.838000000    -3.280000000
O     2.455000000    -1.129000000    -7.174000000
H     2.395000000    -1.149000000    -6.219000000
H     2.613000000    -2.040000000    -7.423000000
O    -5.084000000     1.732000000    -0.357000000
H    -4.866000000     1.167000000     0.384000000
H    -5.467000000     1.140000000    -1.005000000
O    -5.152000000    -2.390000000    -3.096000000
H    -5.737000000    -3.055000000    -2.733000000
H    -5.349000000    -1.598000000    -2.596000000
O    -6.067000000     0.179000000    -2.169000000
H    -6.050000000     0.588000000    -3.035000000
H    -6.929000000    -0.234000000    -2.117000000
O    -1.819000000     1.947000000     4.009000000
H    -2.726000000     2.239000000     4.105000000
H    -1.885000000     0.999000000     3.889000000
O    -1.654000000    -3.020000000    -1.604000000
H    -2.008000000    -2.948000000    -0.718000000
H    -2.300000000    -3.542000000    -2.079000000
O     2.907000000    -5.286000000     4.461000000
H     2.567000000    -4.413000000     4.657000000
H     3.686000000    -5.368000000     5.011000000
O     5.220000000     0.406000000     0.325000000
H     5.364000000     0.613000000    -0.599000000
H     6.001000000    -0.082000000     0.586000000
O     0.666000000     3.421000000     4.815000000
H     1.043000000     2.620000000     5.179000000
H     0.010000000     3.114000000     4.190000000
O    -4.566000000    -0.232000000     1.450000000
H    -3.979000000    -0.525000000     2.147000000
H    -5.059000000    -1.015000000     1.206000000
O    -4.039000000    -0.565000000     5.908000000
H    -3.109000000    -0.742000000     6.050000000
H    -4.490000000    -1.164000000     6.502000000
O    -5.330000000     3.886000000    -3.989000000
H    -5.822000000     3.623000000    -3.211000000
H    -4.414000000     3.871000000    -3.709000000
O     5.117000000    -3.231000000     1.122000000
H     5.704000000    -2.485000000     1.243000000
H     4.308000000    -2.973000000     1.562000000
O     0.933000000    -2.885000000    -0.824000000
H     0.127000000    -3.265000000    -1.172000000
H     0.746000000    -1.949000000    -0.753000000
O     4.575000000    -1.695000000    -3.909000000
H     3.840000000    -1.086000000    -3.839000000
H     4.489000000    -2.263000000    -3.143000000
O    -1.815000000    -3.463000000     7.855000000
H    -1.934000000    -3.069000000     6.991000000
H    -1.328000000    -4.270000000     7.685000000
O     0.011000000    -5.316000000     4.001000000
H     0.910000000    -5.520000000     4.258000000
H     0.102000000    -4.644000000     3.326000000
O     4.519000000     1.345000000     2.969000000
H     4.719000000     0.993000000     2.102000000
H     3.869000000     2.029000000     2.806000000
O    -1.822000000     3.114000000     6.817000000
H    -1.052000000     2.814000000     7.300000000
H    -1.951000000     2.451000000     6.138000000
O    -3.570000000    -2.665000000    -5.319000000
H    -4.191000000    -2.504000000    -4.609000000
H    -3.103000000    -3.457000000    -5.053000000
O    -1.517000000     3.046000000    -3.880000000
H    -1.413000000     3.998000000    -3.874000000
H    -1.017000000     2.756000000    -4.643000000
O    -2.680000000    -4.197000000     5.179000000
H    -1.950000000    -4.635000000     4.740000000
H    -3.168000000    -4.906000000     5.598000000
O    -2.441000000    -2.306000000     3.277000000
H    -1.911000000    -1.529000000     3.457000000
H    -2.644000000    -2.663000000     4.141000000
O     4.931000000    -1.188000000     4.242000000
H     4.682000000    -0.405000000     3.751000000
H     4.170000000    -1.765000000     4.174000000
O    -2.996000000     4.751000000    -2.116000000
H    -3.474000000     5.309000000    -1.503000000
H    -2.561000000     4.103000000    -1.562000000
O     2.477000000    -4.101000000    -4.184000000
H     2.849000000    -3.868000000    -3.334000000
H     1.713000000    -3.532000000    -4.275000000
O     0.092000000    -5.567000000    -2.687000000
H     0.502000000    -5.948000000    -3.464000000
H     0.213000000    -4.623000000    -2.791000000
O    -0.141000000     3.009000000     0.116000000
H    -0.603000000     2.175000000     0.023000000
H     0.424000000     3.057000000    -0.654000000
O    -0.415000000    -0.222000000    -5.036000000
H    -0.292000000    -0.149000000    -5.983000000
H    -1.242000000     0.229000000    -4.867000000
O    -0.119000000     1.164000000     7.760000000
H    -0.142000000     0.821000000     8.654000000
H     0.801000000     1.106000000     7.505000000
O    -3.005000000     1.260000000    -5.279000000
H    -3.165000000     1.442000000    -6.205000000
H    -2.578000000     2.051000000    -4.950000000
O    -2.990000000    -3.143000000     0.724000000
H    -3.943000000    -3.067000000     0.684000000
H    -2.777000000    -3.008000000     1.648000000
O     0.750000000     2.686000000    -5.447000000
H     1.438000000     3.201000000    -5.868000000
H     0.480000000     2.055000000    -6.115000000
O     3.904000000    -3.170000000    -1.646000000
H     4.714000000    -3.242000000    -1.142000000
H     3.323000000    -2.648000000    -1.092000000
O    -1.433000000    -4.429000000    -6.419000000
H    -1.643000000    -3.564000000    -6.772000000
H    -0.802000000    -4.255000000    -5.720000000
O     2.742000000    -2.498000000     2.304000000
H     2.077000000    -3.180000000     2.210000000
H     2.260000000    -1.737000000     2.627000000
O     4.304000000     3.050000000     0.382000000
H     4.820000000     2.256000000     0.526000000
H     3.437000000     2.837000000     0.727000000
O     0.152000000    -3.592000000     1.649000000
H    -0.699000000    -3.160000000     1.575000000
H     0.527000000    -3.535000000     0.770000000
O     2.172000000    -2.300000000     5.351000000
H     2.065000000    -1.624000000     4.681000000
H     2.389000000    -1.815000000     6.147000000
O     3.744000000     2.167000000    -3.155000000
H     4.295000000     2.654000000    -2.543000000
H     4.343000000     1.886000000    -3.847000000
O     1.092000000     3.220000000    -2.512000000
H     2.049000000     3.199000000    -2.494000000
H     0.859000000     2.817000000    -3.348000000
O    -4.831000000     1.707000000     4.795000000
H    -5.214000000     2.236000000     5.496000000
H    -4.521000000     0.915000000     5.235000000
O     1.207000000     5.992000000    -2.392000000
H     1.146000000     5.038000000    -2.342000000
H     2.088000000     6.158000000    -2.727000000
O     2.408000000    -0.161000000    -4.554000000
H     1.468000000    -0.342000000    -4.552000000
H     2.472000000     0.776000000    -4.370000000
O     1.962000000     3.113000000     1.920000000
H     1.237000000     2.694000000     1.457000000
H     1.794000000     4.051000000     1.830000000
O    -1.367000000    -0.918000000     6.240000000
H    -1.046000000    -0.857000000     5.340000000
H    -0.914000000    -0.214000000     6.704000000
