158
-3054.79315
C     0.507000000     0.003000000     1.448000000
H     1.024000000    -0.150000000     2.392000000
C     1.264000000     0.087000000     0.313000000
H     2.330000000     0.109000000     0.527000000
C     0.706000000     0.203000000    -0.968000000
H     1.401000000     0.368000000    -1.758000000
C    -0.622000000     0.134000000    -1.143000000
H    -0.972000000     0.102000000    -2.172000000
C    -1.459000000     0.034000000    -0.060000000
H    -2.544000000    -0.002000000    -0.009000000
C    -0.867000000    -0.027000000     1.225000000
C    -1.862000000    -0.136000000     2.410000000
O    -1.420000000    -0.329000000     3.535000000
O    -2.996000000    -0.457000000     2.176000000
O     0.378000000     0.503000000     5.310000000
H    -0.249000000     0.334000000     4.607000000
H    -0.159000000     0.802000000     6.044000000
O     4.670000000     0.668000000    -0.911000000
H     4.340000000     0.684000000    -0.013000000
H     4.557000000    -0.240000000    -1.192000000
O    -0.267000000     4.326000000     3.409000000
H    -0.763000000     3.824000000     2.762000000
H    -0.771000000     4.239000000     4.218000000
O     4.622000000    -0.266000000     3.908000000
H     5.305000000    -0.925000000     3.784000000
H     4.084000000    -0.611000000     4.621000000
O    -3.102000000     2.603000000    -1.016000000
H    -3.130000000     3.384000000    -1.568000000
H    -2.725000000     1.926000000    -1.577000000
O     2.276000000    -2.484000000    -3.034000000
H     1.396000000    -2.553000000    -3.405000000
H     2.691000000    -1.778000000    -3.529000000
O    -7.332000000    -0.450000000     1.596000000
H    -7.280000000     0.256000000     2.241000000
H    -6.526000000    -0.369000000     1.087000000
O     0.065000000     3.261000000     0.263000000
H    -0.117000000     2.591000000    -0.397000000
H    -0.037000000     4.090000000    -0.203000000
O    -3.000000000    -0.395000000     5.535000000
H    -2.731000000    -1.252000000     5.866000000
H    -2.557000000    -0.315000000     4.690000000
O     0.284000000    -2.770000000    -0.214000000
H     0.895000000    -2.182000000    -0.657000000
H    -0.431000000    -2.200000000     0.072000000
O    -4.272000000    -5.178000000     1.452000000
H    -4.859000000    -4.478000000     1.739000000
H    -4.210000000    -5.063000000     0.504000000
O    -4.817000000    -2.089000000    -0.813000000
H    -5.140000000    -1.272000000    -0.435000000
H    -4.903000000    -1.966000000    -1.759000000
O    -6.604000000     1.491000000     3.355000000
H    -6.379000000     1.929000000     4.176000000
H    -6.456000000     2.154000000     2.681000000
O     4.255000000     1.200000000     1.675000000
H     4.264000000     0.680000000     2.479000000
H     3.404000000     1.639000000     1.683000000
O     0.111000000    -2.890000000    -4.788000000
H    -0.227000000    -2.567000000    -5.623000000
H     0.428000000    -3.772000000    -4.983000000
O     0.194000000    -3.610000000     6.425000000
H     0.342000000    -3.016000000     5.689000000
H     1.059000000    -3.729000000     6.815000000
O     3.901000000    -3.019000000     0.375000000
H     3.112000000    -2.947000000     0.913000000
H     4.597000000    -3.228000000     0.997000000
O    -0.082000000    -5.291000000    -1.514000000
H     0.247000000    -4.407000000    -1.349000000
H    -0.647000000    -5.480000000    -0.765000000
O     5.452000000     3.691000000     0.836000000
H     4.827000000     4.228000000     1.323000000
H     5.239000000     2.791000000     1.083000000
O     2.392000000     2.300000000     4.876000000
H     2.163000000     2.494000000     3.967000000
H     1.835000000     1.558000000     5.110000000
O     0.289000000     3.353000000    -5.494000000
H     0.059000000     3.858000000    -6.274000000
H     1.134000000     2.956000000    -5.706000000
O     1.666000000     3.716000000    -2.912000000
H     2.499000000     3.273000000    -2.749000000
H     1.441000000     3.480000000    -3.812000000
O     1.062000000    -2.078000000     4.593000000
H     0.591000000    -1.269000000     4.391000000
H     1.095000000    -2.550000000     3.762000000
O     3.121000000    -1.181000000     6.073000000
H     2.865000000    -0.462000000     6.650000000
H     2.310000000    -1.436000000     5.634000000
O    -2.925000000     1.876000000     6.923000000
H    -3.012000000     2.440000000     6.155000000
H    -3.056000000     0.990000000     6.585000000
O    -5.002000000     0.525000000     0.662000000
H    -4.962000000     1.473000000     0.788000000
H    -4.320000000     0.178000000     1.237000000
O     4.779000000    -1.775000000    -2.012000000
H     4.008000000    -2.141000000    -2.446000000
H     4.880000000    -2.301000000    -1.219000000
O     4.255000000     2.465000000    -2.767000000
H     4.386000000     1.716000000    -2.185000000
H     4.808000000     3.154000000    -2.398000000
O     3.066000000    -5.609000000    -3.387000000
H     2.649000000    -4.766000000    -3.211000000
H     3.196000000    -5.619000000    -4.335000000
O    -5.165000000    -2.247000000     2.611000000
H    -4.485000000    -1.573000000     2.586000000
H    -5.983000000    -1.765000000     2.487000000
O     1.560000000    -3.242000000     2.063000000
H     0.956000000    -3.401000000     1.337000000
H     1.893000000    -4.110000000     2.292000000
O     3.110000000     2.050000000    -5.239000000
H     2.580000000     1.252000000    -5.235000000
H     3.595000000     2.019000000    -4.414000000
O    -4.040000000    -1.324000000    -4.402000000
H    -4.417000000    -1.091000000    -5.250000000
H    -3.279000000    -0.749000000    -4.312000000
O     7.062000000    -1.574000000    -3.880000000
H     6.453000000    -1.393000000    -3.164000000
H     7.161000000    -2.527000000    -3.875000000
O    -4.174000000    -4.640000000    -1.331000000
H    -3.837000000    -4.510000000    -2.218000000
H    -4.354000000    -3.756000000    -1.011000000
O    -1.847000000     0.510000000    -4.756000000
H    -1.449000000     1.141000000    -4.157000000
H    -1.995000000     1.004000000    -5.562000000
O    -5.835000000     2.413000000    -1.939000000
H    -5.048000000     2.511000000    -1.403000000
H    -5.795000000     1.513000000    -2.262000000
O     1.981000000     2.800000000     2.091000000
H     2.020000000     3.625000000     2.574000000
H     1.443000000     2.996000000     1.324000000
O    -1.671000000     3.377000000    -3.167000000
H    -2.468000000     3.535000000    -3.673000000
H    -0.961000000     3.645000000    -3.750000000
O    -5.395000000    -4.139000000     4.492000000
H    -5.514000000    -3.475000000     3.813000000
H    -5.623000000    -3.691000000     5.307000000
O     7.012000000    -0.539000000     0.487000000
H     7.237000000     0.083000000     1.178000000
H     6.369000000    -0.077000000    -0.052000000
O    -2.257000000    -3.416000000     3.284000000
H    -2.990000000    -3.906000000     2.911000000
H    -2.250000000    -2.590000000     2.800000000
O     2.483000000     6.174000000    -1.944000000
H     2.380000000     6.831000000    -2.633000000
H     2.127000000     5.371000000    -2.323000000
O    -2.363000000     2.920000000     1.621000000
H    -2.924000000     2.753000000     0.863000000
H    -1.472000000     2.860000000     1.276000000
O     1.447000000    -0.281000000    -5.620000000
H     0.526000000    -0.444000000    -5.415000000
H     1.678000000    -0.965000000    -6.248000000
O    -3.236000000     3.314000000     4.336000000
H    -2.941000000     3.020000000     3.474000000
H    -3.381000000     4.255000000     4.231000000
O    -2.379000000    -2.916000000     6.451000000
H    -2.842000000    -3.390000000     5.761000000
H    -1.462000000    -3.168000000     6.341000000
O    -5.663000000     0.082000000     6.306000000
H    -5.015000000    -0.255000000     6.924000000
H    -5.270000000    -0.063000000     5.445000000
