158
-3040.70560
C     1.101000000    -0.489000000     0.932000000
H     1.860000000    -1.041000000     1.479000000
C     1.024000000    -0.806000000    -0.440000000
H     1.721000000    -1.497000000    -0.907000000
C    -0.082000000    -0.284000000    -1.221000000
H    -0.201000000    -0.550000000    -2.302000000
C    -0.961000000     0.599000000    -0.596000000
H    -1.856000000     1.019000000    -1.048000000
C    -0.861000000     0.857000000     0.750000000
H    -1.632000000     1.504000000     1.160000000
C     0.196000000     0.411000000     1.518000000
C     0.306000000     0.836000000     2.990000000
O     0.997000000     0.205000000     3.801000000
O    -0.606000000     1.560000000     3.390000000
O     3.289000000     1.301000000    -6.522000000
H     3.114000000     0.908000000    -5.667000000
H     2.790000000     0.766000000    -7.139000000
O     5.999000000     1.558000000     2.780000000
H     5.158000000     1.735000000     2.358000000
H     6.343000000     0.795000000     2.315000000
O    -1.881000000    -0.310000000    -5.033000000
H    -2.167000000     0.380000000    -4.435000000
H    -2.013000000    -1.122000000    -4.544000000
O    -0.043000000    -4.516000000    -0.792000000
H     0.886000000    -4.430000000    -0.580000000
H    -0.054000000    -4.915000000    -1.662000000
O    -5.072000000     1.266000000     3.023000000
H    -4.795000000     2.164000000     2.841000000
H    -4.360000000     0.898000000     3.547000000
O    -2.306000000    -4.675000000     2.384000000
H    -1.494000000    -4.176000000     2.292000000
H    -2.872000000    -4.116000000     2.915000000
O    -1.797000000     1.861000000    -7.539000000
H    -1.755000000     1.369000000    -6.718000000
H    -2.731000000     1.911000000    -7.740000000
O     2.575000000     2.643000000     4.584000000
H     2.027000000     1.898000000     4.336000000
H     3.201000000     2.730000000     3.865000000
O    -4.799000000    -0.850000000    -5.878000000
H    -4.528000000    -0.882000000    -4.960000000
H    -5.521000000    -0.222000000    -5.892000000
O    -4.092000000     0.484000000    -2.299000000
H    -4.164000000     0.639000000    -1.357000000
H    -4.845000000    -0.069000000    -2.509000000
O     4.430000000     0.341000000    -0.792000000
H     3.702000000     0.963000000    -0.781000000
H     4.396000000    -0.083000000     0.065000000
O     2.790000000     1.986000000     7.226000000
H     3.635000000     1.622000000     7.490000000
H     2.893000000     2.180000000     6.295000000
O    -0.419000000     1.851000000     6.517000000
H    -0.197000000     1.692000000     5.599000000
H    -1.290000000     1.468000000     6.622000000
O     0.488000000    -3.468000000     2.459000000
H     0.590000000    -4.233000000     1.892000000
H     1.378000000    -3.133000000     2.572000000
O     6.826000000    -1.851000000    -0.615000000
H     7.694000000    -1.588000000    -0.919000000
H     6.219000000    -1.408000000    -1.208000000
O     0.397000000     3.942000000     1.906000000
H    -0.088000000     3.398000000     2.526000000
H     0.753000000     3.321000000     1.270000000
O     3.046000000    -2.334000000     3.130000000
H     2.960000000    -1.763000000     3.893000000
H     3.970000000    -2.276000000     2.890000000
O    -2.067000000     3.950000000     7.750000000
H    -1.224000000     3.621000000     8.062000000
H    -2.431000000     3.229000000     7.238000000
O    -1.954000000    -3.775000000    -6.922000000
H    -2.062000000    -2.834000000    -7.058000000
H    -1.614000000    -3.851000000    -6.031000000
O    -2.824000000     0.377000000     4.413000000
H    -2.021000000     0.819000000     4.136000000
H    -2.599000000    -0.553000000     4.408000000
O    -4.926000000     0.980000000     0.273000000
H    -5.569000000     1.384000000     0.857000000
H    -5.060000000     0.039000000     0.385000000
O    -1.759000000     4.038000000     4.315000000
H    -1.552000000     3.132000000     4.089000000
H    -1.078000000     4.292000000     4.937000000
O    -2.323000000     2.032000000    -3.680000000
H    -2.816000000     2.826000000    -3.889000000
H    -2.855000000     1.588000000    -3.020000000
O     2.867000000     2.337000000    -2.683000000
H     2.041000000     2.000000000    -3.031000000
H     3.310000000     2.718000000    -3.441000000
O    -3.670000000    -3.566000000    -2.543000000
H    -4.111000000    -2.730000000    -2.692000000
H    -3.474000000    -3.571000000    -1.606000000
O    -2.040000000    -2.326000000    -0.211000000
H    -1.442000000    -3.068000000    -0.114000000
H    -1.480000000    -1.603000000    -0.493000000
O     0.087000000    -0.483000000     8.535000000
H    -0.074000000     0.015000000     7.733000000
H     0.368000000    -1.345000000     8.228000000
O     3.858000000    -4.593000000    -1.268000000
H     4.494000000    -4.322000000    -0.606000000
H     4.390000000    -4.969000000    -1.970000000
O     5.497000000    -1.117000000     1.731000000
H     6.075000000    -1.454000000     2.415000000
H     5.886000000    -1.429000000     0.914000000
O     0.462000000     2.283000000    -4.202000000
H    -0.452000000     2.034000000    -4.063000000
H     0.470000000     2.691000000    -5.068000000
O     0.879000000    -2.663000000    -7.131000000
H     0.108000000    -3.174000000    -7.376000000
H     1.536000000    -3.318000000    -6.897000000
O     2.130000000    -2.281000000     7.329000000
H     2.754000000    -3.007000000     7.311000000
H     2.493000000    -1.637000000     6.721000000
O    -2.170000000    -1.180000000    -7.804000000
H    -3.044000000    -0.818000000    -7.950000000
H    -1.887000000    -0.797000000    -6.974000000
O    -3.153000000     3.713000000    -0.573000000
H    -3.803000000     3.710000000    -1.275000000
H    -3.647000000     3.472000000     0.211000000
O    -4.732000000    -1.702000000     0.596000000
H    -4.779000000    -2.556000000     0.165000000
H    -3.819000000    -1.622000000     0.870000000
O     4.618000000    -0.643000000    -3.672000000
H     3.768000000    -0.779000000    -4.089000000
H     4.447000000     0.002000000    -2.985000000
O     0.849000000     4.793000000     4.390000000
H     1.520000000     4.126000000     4.246000000
H     0.464000000     4.936000000     3.525000000
O     1.574000000     2.594000000    -0.268000000
H     2.152000000     2.750000000    -1.015000000
H     1.114000000     1.784000000    -0.487000000
O     2.562000000    -6.683000000    -0.433000000
H     3.051000000    -5.950000000    -0.805000000
H     3.164000000    -7.426000000    -0.488000000
O     3.148000000    -0.875000000     5.392000000
H     2.389000000    -0.430000000     5.013000000
H     3.846000000    -0.221000000     5.366000000
O    -1.555000000    -3.031000000    -4.105000000
H    -0.749000000    -3.304000000    -3.668000000
H    -2.251000000    -3.487000000    -3.631000000
O     0.012000000    -5.908000000    -3.589000000
H    -0.855000000    -6.281000000    -3.751000000
H     0.594000000    -6.666000000    -3.542000000
O    -3.691000000     4.084000000     2.350000000
H    -3.953000000     4.923000000     2.728000000
H    -2.898000000     3.843000000     2.829000000
O    -0.750000000     4.913000000    -1.169000000
H    -1.653000000     4.755000000    -0.893000000
H    -0.283000000     4.114000000    -0.927000000
O    -3.605000000     1.914000000     6.638000000
H    -3.542000000     1.261000000     5.941000000
H    -4.459000000     2.325000000     6.504000000
O     2.031000000    -0.525000000    -5.068000000
H     1.815000000    -1.209000000    -5.702000000
H     1.203000000    -0.070000000    -4.915000000
O     3.743000000     2.506000000     1.599000000
H     2.857000000     2.557000000     1.240000000
H     4.150000000     3.337000000     1.352000000
O    -0.527000000    -1.706000000     4.965000000
H    -0.043000000    -0.962000000     4.606000000
H    -0.160000000    -2.468000000     4.517000000
