158
-3023.05062
C     1.220000000     0.007000000     0.858000000
H     2.115000000     0.149000000     1.457000000
C     1.206000000     0.203000000    -0.552000000
H     2.101000000     0.398000000    -1.138000000
C    -0.010000000     0.202000000    -1.241000000
H    -0.036000000     0.227000000    -2.365000000
C    -1.243000000    -0.080000000    -0.494000000
H    -2.168000000    -0.072000000    -1.065000000
C    -1.193000000    -0.242000000     0.849000000
H    -2.188000000    -0.380000000     1.265000000
C    -0.011000000    -0.191000000     1.589000000
C     0.030000000    -0.379000000     3.065000000
O     1.106000000    -0.635000000     3.557000000
O    -0.934000000    -0.294000000     3.707000000
O     2.946000000    -0.393000000    -7.160000000
H     3.728000000    -0.667000000    -6.681000000
H     2.258000000    -0.984000000    -6.855000000
O     5.671000000     1.952000000     2.226000000
H     5.028000000     2.539000000     1.830000000
H     5.655000000     1.171000000     1.673000000
O    -2.850000000    -2.798000000    -7.028000000
H    -2.968000000    -2.638000000    -6.092000000
H    -2.984000000    -1.942000000    -7.435000000
O     0.339000000    -4.401000000     1.053000000
H     1.078000000    -4.780000000     0.578000000
H     0.740000000    -3.925000000     1.781000000
O    -4.105000000    -0.355000000     3.420000000
H    -3.456000000     0.346000000     3.492000000
H    -3.702000000    -1.101000000     3.865000000
O     1.582000000     2.195000000     3.805000000
H     1.636000000     1.275000000     4.063000000
H     0.814000000     2.529000000     4.267000000
O    -2.232000000    -4.484000000    -0.192000000
H    -2.612000000    -4.973000000     0.538000000
H    -1.574000000    -3.919000000     0.215000000
O    -5.303000000    -1.947000000    -2.544000000
H    -5.130000000    -1.603000000    -1.668000000
H    -5.987000000    -2.604000000    -2.412000000
O     5.175000000     0.026000000    -0.293000000
H     5.039000000     0.719000000    -0.939000000
H     4.324000000    -0.406000000    -0.221000000
O     0.882000000     3.831000000     6.575000000
H     0.456000000     3.009000000     6.333000000
H     1.223000000     4.176000000     5.750000000
O    -0.269000000     1.472000000     6.065000000
H     0.260000000     0.772000000     5.682000000
H    -1.096000000     1.048000000     6.296000000
O     4.400000000     2.775000000     4.408000000
H     4.783000000     2.777000000     3.531000000
H     3.541000000     2.367000000     4.293000000
O     6.317000000    -2.003000000    -2.340000000
H     5.494000000    -1.566000000    -2.559000000
H     6.996000000    -1.398000000    -2.638000000
O    -0.793000000     3.937000000    -4.080000000
H    -0.948000000     4.880000000    -4.022000000
H    -1.350000000     3.560000000    -3.398000000
O    -1.162000000     4.130000000     2.473000000
H    -0.977000000     5.058000000     2.330000000
H    -0.682000000     3.680000000     1.778000000
O     1.700000000    -3.140000000     2.920000000
H     1.453000000    -2.313000000     3.333000000
H     2.569000000    -2.975000000     2.554000000
O    -2.397000000     3.913000000     5.733000000
H    -3.235000000     4.081000000     6.163000000
H    -2.230000000     2.984000000     5.889000000
O    -2.353000000    -2.152000000     4.876000000
H    -1.651000000    -1.782000000     4.341000000
H    -1.952000000    -2.909000000     5.305000000
O    -4.921000000     1.321000000    -1.261000000
H    -5.630000000     1.723000000    -0.757000000
H    -4.804000000     0.458000000    -0.864000000
O    -2.476000000     1.890000000     3.502000000
H    -1.750000000     1.271000000     3.582000000
H    -2.058000000     2.722000000     3.281000000
O    -4.457000000    -4.036000000     4.094000000
H    -3.614000000    -3.585000000     4.137000000
H    -5.089000000    -3.392000000     4.413000000
O    -4.837000000     2.477000000     5.353000000
H    -4.193000000     2.630000000     4.661000000
H    -5.643000000     2.258000000     4.886000000
O    -0.790000000    -0.357000000    -4.977000000
H    -1.603000000     0.097000000    -4.754000000
H    -0.101000000     0.276000000    -4.776000000
O    -4.659000000     3.151000000    -3.370000000
H    -4.692000000     2.531000000    -2.641000000
H    -4.899000000     3.992000000    -2.981000000
O     1.391000000     3.692000000    -2.188000000
H     1.910000000     2.958000000    -2.518000000
H     0.781000000     3.892000000    -2.898000000
O    -3.412000000     0.663000000    -4.571000000
H    -3.680000000     1.229000000    -3.847000000
H    -4.222000000     0.239000000    -4.855000000
O    -3.180000000    -3.030000000    -4.400000000
H    -3.602000000    -2.679000000    -3.616000000
H    -2.404000000    -2.483000000    -4.520000000
O     0.550000000    -2.644000000    -1.660000000
H     0.307000000    -2.949000000    -0.786000000
H     0.777000000    -1.722000000    -1.538000000
O    -1.440000000    -1.424000000     7.902000000
H    -1.942000000    -1.721000000     7.143000000
H    -0.589000000    -1.853000000     7.809000000
O     4.074000000    -2.867000000     1.525000000
H     4.917000000    -2.449000000     1.702000000
H     4.257000000    -3.489000000     0.821000000
O     0.820000000     1.906000000    -4.891000000
H     0.360000000     2.745000000    -4.880000000
H     1.517000000     2.023000000    -5.536000000
O    -2.424000000     2.733000000    -1.212000000
H    -3.204000000     2.243000000    -0.950000000
H    -1.710000000     2.325000000    -0.722000000
O    -4.754000000    -0.540000000     0.706000000
H    -4.403000000    -0.377000000     1.581000000
H    -5.059000000    -1.447000000     0.735000000
O     3.597000000    -1.525000000    -3.018000000
H     3.408000000    -1.832000000    -3.905000000
H     3.116000000    -2.124000000    -2.448000000
O     0.382000000     3.256000000     0.345000000
H     0.670000000     3.537000000    -0.523000000
H     0.557000000     2.315000000     0.361000000
O    -2.611000000     2.660000000    -6.752000000
H    -2.318000000     2.320000000    -5.907000000
H    -3.352000000     3.226000000    -6.539000000
O     3.946000000     1.177000000    -2.586000000
H     3.576000000     0.357000000    -2.915000000
H     4.230000000     1.644000000    -3.371000000
O     3.606000000    -4.748000000     4.137000000
H     3.169000000    -3.904000000     4.025000000
H     3.294000000    -5.278000000     3.403000000
O     2.198000000    -0.571000000     5.912000000
H     1.769000000    -0.806000000     5.089000000
H     1.983000000    -1.288000000     6.508000000
O     5.257000000    -0.135000000     5.888000000
H     5.402000000     0.192000000     6.776000000
H     4.319000000    -0.013000000     5.738000000
O    -0.809000000    -4.462000000    -6.002000000
H    -0.642000000    -4.307000000    -5.072000000
H    -1.441000000    -3.786000000    -6.247000000
O     0.359000000    -4.769000000    -3.337000000
H    -0.179000000    -5.502000000    -3.037000000
H     0.095000000    -4.036000000    -2.780000000
O    -4.802000000     3.850000000     1.527000000
H    -4.744000000     4.516000000     2.212000000
H    -4.273000000     3.123000000     1.854000000
O    -1.897000000     5.630000000    -1.665000000
H    -1.881000000     6.385000000    -1.076000000
H    -1.871000000     4.871000000    -1.082000000
O    -2.864000000     0.539000000     6.356000000
H    -2.882000000    -0.306000000     5.906000000
H    -3.623000000     1.010000000     6.011000000
O     1.520000000    -2.149000000    -4.948000000
H     0.674000000    -1.723000000    -5.089000000
H     1.638000000    -2.707000000    -5.716000000
O     3.423000000     3.430000000     1.296000000
H     2.472000000     3.455000000     1.186000000
H     3.733000000     4.237000000     0.886000000
O    -0.667000000    -4.208000000     5.643000000
H     0.157000000    -4.213000000     6.131000000
H    -0.533000000    -4.845000000     4.941000000
