158
-2997.99332
C     1.344000000    -0.072000000     0.694000000
H     2.346000000    -0.011000000     1.110000000
C     1.128000000     0.350000000    -0.639000000
H     1.914000000     0.865000000    -1.186000000
C    -0.136000000     0.311000000    -1.184000000
H    -0.321000000     0.559000000    -2.242000000
C    -1.227000000    -0.158000000    -0.496000000
H    -2.238000000    -0.103000000    -0.890000000
C    -1.032000000    -0.559000000     0.795000000
H    -1.866000000    -0.870000000     1.419000000
C     0.220000000    -0.488000000     1.450000000
C     0.387000000    -0.975000000     2.885000000
O     1.467000000    -0.999000000     3.448000000
O    -0.621000000    -1.162000000     3.479000000
O     5.804000000     1.930000000     3.619000000
H     5.246000000     1.250000000     3.998000000
H     5.904000000     1.674000000     2.702000000
O     1.702000000    -1.111000000    -5.291000000
H     1.072000000    -0.893000000    -4.604000000
H     1.936000000    -0.268000000    -5.679000000
O    -3.061000000    -5.755000000     4.085000000
H    -2.756000000    -6.525000000     3.605000000
H    -2.595000000    -5.022000000     3.682000000
O    -5.163000000     0.868000000     0.926000000
H    -5.620000000     1.573000000     1.382000000
H    -4.243000000     1.134000000     0.933000000
O    -3.694000000    -3.301000000     0.992000000
H    -4.430000000    -2.706000000     1.138000000
H    -4.100000000    -4.161000000     0.882000000
O    -3.726000000     1.182000000    -6.599000000
H    -3.569000000     0.312000000    -6.965000000
H    -3.249000000     1.183000000    -5.769000000
O     0.339000000    -0.505000000     5.905000000
H     0.263000000    -0.609000000     4.956000000
H     0.730000000    -1.326000000     6.205000000
O     1.084000000     2.930000000    -5.253000000
H     1.745000000     2.529000000    -4.688000000
H     1.387000000     3.829000000    -5.376000000
O    -1.419000000    -4.403000000    -1.422000000
H    -1.811000000    -4.173000000    -0.580000000
H    -2.166000000    -4.580000000    -1.994000000
O    -3.850000000     4.052000000    -1.001000000
H    -3.019000000     3.661000000    -0.732000000
H    -4.278000000     4.295000000    -0.180000000
O    -2.873000000    -1.946000000    -3.457000000
H    -2.865000000    -2.834000000    -3.100000000
H    -3.800000000    -1.714000000    -3.502000000
O     5.446000000    -1.855000000     2.173000000
H     6.145000000    -1.780000000     2.823000000
H     5.038000000    -0.989000000     2.160000000
O    -0.130000000     2.152000000     4.244000000
H    -1.033000000     1.841000000     4.303000000
H     0.336000000     1.665000000     4.925000000
O    -4.263000000     2.626000000    -3.283000000
H    -5.098000000     2.159000000    -3.235000000
H    -4.057000000     2.841000000    -2.373000000
O     5.684000000    -3.605000000     0.115000000
H     4.936000000    -3.577000000    -0.482000000
H     5.469000000    -2.969000000     0.798000000
O     2.687000000    -3.461000000     2.472000000
H     2.500000000    -2.522000000     2.496000000
H     3.575000000    -3.518000000     2.118000000
O     3.066000000    -2.861000000     5.380000000
H     2.227000000    -2.425000000     5.230000000
H     3.257000000    -3.303000000     4.552000000
O     2.145000000     5.947000000    -3.091000000
H     2.583000000     6.406000000    -2.374000000
H     1.370000000     5.555000000    -2.686000000
O    -2.966000000     2.090000000     2.071000000
H    -3.112000000     3.014000000     2.274000000
H    -3.115000000     1.637000000     2.901000000
O    -2.679000000    -1.655000000     7.241000000
H    -3.523000000    -1.738000000     6.796000000
H    -2.414000000    -2.558000000     7.420000000
O    -2.407000000     0.553000000     4.590000000
H    -2.099000000    -0.071000000     3.933000000
H    -1.894000000     0.351000000     5.372000000
O    -0.391000000     1.064000000    -7.077000000
H     0.070000000     1.875000000    -6.863000000
H    -0.682000000     0.724000000    -6.231000000
O    -1.591000000     3.270000000    -3.105000000
H    -2.476000000     3.260000000    -3.469000000
H    -1.719000000     3.165000000    -2.162000000
O     2.921000000     3.129000000     0.163000000
H     2.345000000     3.208000000    -0.597000000
H     3.762000000     2.852000000    -0.202000000
O     0.934000000     3.822000000     2.379000000
H     1.470000000     3.304000000     1.779000000
H     0.550000000     3.178000000     2.974000000
O    -7.308000000    -0.105000000    -0.785000000
H    -6.447000000    -0.020000000    -0.374000000
H    -7.928000000     0.085000000    -0.081000000
O    -1.739000000     0.571000000    -4.348000000
H    -1.639000000     1.187000000    -3.622000000
H    -1.925000000    -0.268000000    -3.926000000
O     1.317000000    -3.826000000    -5.963000000
H     1.515000000    -4.371000000    -5.201000000
H     1.421000000    -2.928000000    -5.649000000
O     1.225000000    -3.268000000    -1.917000000
H     0.354000000    -3.660000000    -1.971000000
H     1.072000000    -2.392000000    -1.562000000
O     0.965000000     3.231000000    -2.159000000
H     1.315000000     2.765000000    -2.919000000
H     0.079000000     3.482000000    -2.419000000
O    -1.453000000     2.486000000    -0.231000000
H    -2.036000000     2.275000000     0.498000000
H    -0.773000000     1.812000000    -0.196000000
O    -1.798000000    -3.814000000     2.746000000
H    -1.393000000    -2.959000000     2.891000000
H    -2.517000000    -3.639000000     2.139000000
O     3.043000000     1.705000000    -3.978000000
H     3.649000000     1.906000000    -3.265000000
H     3.604000000     1.401000000    -4.691000000
O    -1.261000000     4.755000000    -5.330000000
H    -1.198000000     4.154000000    -4.587000000
H    -0.683000000     5.483000000    -5.099000000
O    -5.902000000    -1.706000000    -3.325000000
H    -6.113000000    -0.898000000    -2.856000000
H    -6.259000000    -2.403000000    -2.775000000
O    -5.929000000    -1.727000000     1.375000000
H    -6.677000000    -1.692000000     1.971000000
H    -5.538000000    -0.855000000     1.431000000
O    -0.567000000     1.723000000     7.240000000
H    -0.112000000     1.086000000     6.689000000
H    -1.191000000     1.201000000     7.744000000
O     3.892000000    -3.497000000    -1.834000000
H     4.073000000    -2.993000000    -2.627000000
H     2.937000000    -3.521000000    -1.777000000
O     3.650000000     0.278000000     4.374000000
H     2.876000000    -0.158000000     4.018000000
H     3.688000000    -0.008000000     5.286000000
O     4.895000000     0.112000000    -1.395000000
H     5.217000000     0.904000000    -1.825000000
H     5.079000000    -0.591000000    -2.018000000
O     0.822000000    -5.422000000     2.006000000
H     1.457000000    -4.711000000     2.096000000
H     0.246000000    -5.326000000     2.764000000
O     5.140000000    -2.172000000     7.052000000
H     4.399000000    -2.309000000     6.462000000
H     4.824000000    -1.531000000     7.688000000
O     5.214000000     2.336000000    -2.583000000
H     5.807000000     1.930000000    -3.217000000
H     5.404000000     3.272000000    -2.643000000
O    -4.942000000    -2.522000000     5.383000000
H    -5.214000000    -3.193000000     6.009000000
H    -4.352000000    -2.978000000     4.784000000
O    -0.515000000     6.284000000    -1.757000000
H    -0.425000000     6.191000000    -0.809000000
H    -0.384000000     7.218000000    -1.919000000
O     4.036000000    -2.034000000    -4.095000000
H     4.828000000    -1.544000000    -4.313000000
H     3.375000000    -1.704000000    -4.703000000
O     5.095000000     0.801000000     1.133000000
H     4.304000000     1.254000000     1.425000000
H     4.877000000     0.477000000     0.259000000
O    -0.049000000    -3.774000000     5.569000000
H    -0.881000000    -3.997000000     5.985000000
H    -0.298000000    -3.333000000     4.757000000
