158
-3060.34024
C     1.301000000     0.485000000     0.514000000
H     2.291000000     0.743000000     0.881000000
C     1.117000000    -0.124000000    -0.701000000
H     1.932000000    -0.384000000    -1.372000000
C    -0.126000000    -0.492000000    -1.066000000
H    -0.426000000    -1.061000000    -1.970000000
C    -1.215000000    -0.152000000    -0.360000000
H    -2.160000000    -0.528000000    -0.744000000
C    -1.094000000     0.583000000     0.825000000
H    -1.955000000     0.821000000     1.444000000
C     0.189000000     0.791000000     1.333000000
C     0.383000000     1.327000000     2.698000000
O     1.459000000     1.117000000     3.268000000
O    -0.508000000     1.796000000     3.389000000
O     1.487000000    -4.871000000    -5.680000000
H     1.884000000    -4.109000000    -6.101000000
H     1.500000000    -5.551000000    -6.353000000
O     4.121000000     1.239000000     2.776000000
H     4.300000000     2.164000000     2.605000000
H     3.170000000     1.195000000     2.881000000
O    -3.100000000     0.892000000    -4.271000000
H    -2.715000000     1.748000000    -4.082000000
H    -3.909000000     1.092000000    -4.742000000
O     0.954000000     5.975000000     6.212000000
H     1.694000000     5.888000000     6.814000000
H     0.867000000     5.108000000     5.814000000
O    -0.437000000    -1.008000000    -7.720000000
H    -0.388000000    -1.834000000    -8.202000000
H    -0.948000000    -1.218000000    -6.939000000
O     3.139000000    -2.704000000    -1.598000000
H     2.383000000    -3.017000000    -2.095000000
H     3.001000000    -3.041000000    -0.713000000
O     5.696000000     1.317000000    -3.517000000
H     5.868000000     1.473000000    -2.588000000
H     6.277000000     1.925000000    -3.974000000
O     5.421000000     3.182000000     5.721000000
H     4.925000000     3.438000000     6.499000000
H     4.841000000     3.390000000     4.988000000
O    -2.815000000     3.374000000     2.875000000
H    -2.499000000     2.473000000     2.927000000
H    -2.033000000     3.911000000     3.005000000
O    -3.904000000     1.191000000    -1.514000000
H    -3.344000000     1.947000000    -1.337000000
H    -3.771000000     1.006000000    -2.443000000
O     0.293000000    -2.442000000     1.544000000
H    -0.382000000    -1.829000000     1.252000000
H     0.535000000    -2.135000000     2.417000000
O     2.678000000     4.192000000    -0.763000000
H     2.245000000     4.843000000    -1.314000000
H     1.968000000     3.632000000    -0.450000000
O     2.769000000     1.745000000     5.912000000
H     2.156000000     1.582000000     5.195000000
H     3.477000000     2.250000000     5.512000000
O     0.596000000     4.196000000     4.270000000
H    -0.086000000     4.858000000     4.157000000
H     0.186000000     3.379000000     3.985000000
O    -3.058000000    -4.720000000     1.580000000
H    -3.289000000    -4.027000000     2.199000000
H    -3.177000000    -4.320000000     0.718000000
O     5.261000000     1.778000000    -0.736000000
H     5.162000000     2.202000000     0.116000000
H     4.366000000     1.693000000    -1.067000000
O     2.648000000    -3.496000000     1.182000000
H     3.189000000    -2.898000000     1.699000000
H     1.749000000    -3.284000000     1.435000000
O     3.096000000    -2.464000000    -6.705000000
H     2.806000000    -1.801000000    -7.332000000
H     3.605000000    -1.975000000    -6.059000000
O    -1.588000000     1.387000000     5.743000000
H    -1.484000000     0.442000000     5.853000000
H    -1.284000000     1.559000000     4.852000000
O    -5.338000000     4.244000000     3.376000000
H    -4.416000000     4.019000000     3.503000000
H    -5.811000000     3.439000000     3.588000000
O    -5.369000000     0.895000000     0.926000000
H    -4.902000000     1.018000000     0.099000000
H    -6.271000000     1.153000000     0.732000000
O    -4.332000000     0.723000000     3.510000000
H    -4.778000000     1.358000000     4.071000000
H    -4.695000000     0.879000000     2.638000000
O    -2.516000000     3.219000000    -3.113000000
H    -3.377000000     3.593000000    -3.299000000
H    -1.916000000     3.963000000    -3.162000000
O    -1.157000000     6.012000000     3.655000000
H    -0.744000000     6.759000000     3.223000000
H    -2.084000000     6.246000000     3.705000000
O    -0.510000000    -5.397000000     1.335000000
H    -0.315000000    -4.460000000     1.358000000
H    -1.465000000    -5.441000000     1.288000000
O    -3.499000000    -3.182000000    -0.671000000
H    -3.358000000    -2.607000000    -1.422000000
H    -3.844000000    -2.606000000     0.011000000
O    -4.075000000    -1.702000000    -2.793000000
H    -3.572000000    -1.271000000    -3.484000000
H    -4.939000000    -1.846000000    -3.181000000
O     1.951000000     0.204000000    -7.441000000
H     2.114000000     0.159000000    -6.499000000
H     0.998000000     0.167000000    -7.522000000
O     5.458000000    -1.525000000    -0.470000000
H     4.789000000    -1.969000000    -0.992000000
H     5.734000000    -0.787000000    -1.013000000
O     2.613000000     1.683000000    -3.501000000
H     3.561000000     1.656000000    -3.366000000
H     2.453000000     2.536000000    -3.903000000
O     3.379000000     3.989000000     4.098000000
H     2.428000000     3.950000000     4.198000000
H     3.529000000     4.741000000     3.525000000
O     3.445000000    -1.801000000     4.711000000
H     3.533000000    -2.541000000     4.110000000
H     3.711000000    -1.040000000     4.195000000
O    -3.272000000     3.209000000     6.965000000
H    -4.071000000     2.931000000     6.518000000
H    -2.609000000     2.577000000     6.686000000
O    -3.345000000    -2.556000000     4.027000000
H    -3.214000000    -3.408000000     4.443000000
H    -2.698000000    -1.985000000     4.443000000
O     2.169000000     1.508000000     8.548000000
H     2.786000000     0.921000000     8.984000000
H     2.389000000     1.440000000     7.619000000
O     4.437000000     3.499000000     1.350000000
H     3.720000000     3.661000000     0.736000000
H     4.541000000     4.325000000     1.821000000
O     1.279000000    -0.188000000    -4.784000000
H     1.833000000    -0.955000000    -4.636000000
H     1.717000000     0.519000000    -4.311000000
O     4.604000000    -1.018000000    -4.792000000
H     4.994000000    -1.714000000    -4.262000000
H     5.134000000    -0.245000000    -4.599000000
O     0.210000000     3.142000000    -0.514000000
H    -0.637000000     3.585000000    -0.472000000
H    -0.007000000     2.225000000    -0.687000000
O    -1.134000000    -1.592000000     5.857000000
H    -0.670000000    -1.313000000     5.067000000
H    -0.656000000    -2.366000000     6.154000000
O     3.965000000    -1.257000000     1.895000000
H     4.391000000    -1.418000000     1.053000000
H     4.210000000    -0.359000000     2.119000000
O    -4.541000000    -1.727000000     1.463000000
H    -4.760000000    -0.800000000     1.369000000
H    -4.346000000    -1.834000000     2.394000000
O    -2.608000000    -4.476000000    -4.019000000
H    -2.552000000    -3.548000000    -3.794000000
H    -2.980000000    -4.890000000    -3.240000000
O    -3.308000000     3.848000000     0.041000000
H    -4.034000000     3.407000000    -0.401000000
H    -3.479000000     3.717000000     0.973000000
O    -1.402000000    -1.339000000    -4.802000000
H    -1.811000000    -0.476000000    -4.745000000
H    -0.467000000    -1.170000000    -4.692000000
O     0.825000000    -3.362000000    -3.384000000
H     1.069000000    -3.949000000    -4.100000000
H    -0.121000000    -3.251000000    -3.477000000
O     0.723000000     5.764000000     1.600000000
H     1.162000000     4.920000000     1.709000000
H     0.057000000     5.602000000     0.931000000
O     0.911000000    -1.309000000     3.965000000
H     1.071000000    -0.365000000     3.942000000
H     1.729000000    -1.683000000     4.292000000
