158
-3040.96501
C     1.098000000    -0.319000000     0.876000000
H     1.936000000    -0.698000000     1.455000000
C     0.919000000    -0.813000000    -0.398000000
H     1.577000000    -1.535000000    -0.875000000
C    -0.191000000    -0.472000000    -1.063000000
H    -0.293000000    -0.996000000    -2.043000000
C    -1.149000000     0.472000000    -0.608000000
H    -2.043000000     0.688000000    -1.188000000
C    -0.926000000     0.982000000     0.637000000
H    -1.742000000     1.579000000     1.035000000
C     0.188000000     0.585000000     1.443000000
C     0.402000000     1.249000000     2.808000000
O    -0.370000000     2.100000000     3.194000000
O     1.329000000     0.852000000     3.508000000
O     1.526000000    -3.703000000    -5.938000000
H     2.121000000    -3.193000000    -6.488000000
H     1.413000000    -3.171000000    -5.151000000
O     2.434000000     4.099000000     1.802000000
H     1.484000000     4.121000000     1.919000000
H     2.786000000     4.199000000     2.686000000
O    -2.303000000    -0.052000000     5.979000000
H    -2.319000000     0.497000000     5.195000000
H    -1.444000000    -0.473000000     5.959000000
O    -1.908000000    -1.518000000     1.491000000
H    -2.721000000    -1.063000000     1.273000000
H    -1.234000000    -1.060000000     0.989000000
O     3.663000000     1.445000000     4.408000000
H     3.288000000     1.931000000     5.143000000
H     2.904000000     1.153000000     3.902000000
O    -0.448000000    -3.539000000    -1.935000000
H    -1.128000000    -3.020000000    -2.364000000
H    -0.882000000    -4.362000000    -1.710000000
O    -1.257000000     2.718000000    -2.955000000
H    -1.265000000     3.148000000    -2.100000000
H    -1.818000000     3.265000000    -3.504000000
O    -4.331000000    -5.530000000    -1.953000000
H    -4.682000000    -5.365000000    -1.078000000
H    -3.807000000    -4.754000000    -2.151000000
O    -0.801000000     4.178000000    -0.473000000
H    -1.679000000     3.895000000    -0.219000000
H    -0.322000000     4.243000000     0.353000000
O     2.398000000     1.933000000    -6.514000000
H     2.695000000     2.764000000    -6.144000000
H     1.780000000     1.590000000    -5.868000000
O     1.900000000    -3.906000000     6.132000000
H     1.272000000    -3.999000000     6.849000000
H     1.600000000    -3.136000000     5.650000000
O     4.140000000    -3.343000000    -1.919000000
H     3.999000000    -3.089000000    -1.007000000
H     5.076000000    -3.538000000    -1.972000000
O    -2.879000000     1.130000000     3.433000000
H    -3.465000000     1.860000000     3.631000000
H    -2.041000000     1.545000000     3.225000000
O     4.162000000    -2.984000000     0.689000000
H     4.070000000    -2.283000000     1.334000000
H     5.011000000    -3.380000000     0.886000000
O    -3.401000000     3.559000000     0.684000000
H    -3.516000000     4.345000000     1.219000000
H    -3.973000000     2.908000000     1.089000000
O    -0.348000000    -5.343000000     1.586000000
H    -0.126000000    -4.733000000     2.289000000
H     0.264000000    -5.129000000     0.881000000
O     1.778000000    -2.620000000    -3.392000000
H     0.976000000    -3.090000000    -3.163000000
H     2.392000000    -2.839000000    -2.691000000
O    -5.215000000    -2.021000000    -1.699000000
H    -5.809000000    -2.518000000    -2.263000000
H    -4.371000000    -2.060000000    -2.147000000
O    -0.262000000     4.548000000     2.065000000
H    -0.266000000     3.681000000     2.471000000
H    -1.004000000     5.002000000     2.464000000
O     4.668000000     1.337000000    -3.727000000
H     4.283000000     2.180000000    -3.965000000
H     3.972000000     0.881000000    -3.255000000
O     0.432000000    -0.337000000     6.321000000
H     1.143000000    -0.762000000     6.800000000
H     0.868000000     0.125000000     5.605000000
O     3.574000000    -5.899000000    -3.148000000
H     3.667000000    -5.151000000    -2.558000000
H     4.468000000    -6.096000000    -3.429000000
O    -0.288000000     3.036000000     5.844000000
H    -1.046000000     3.459000000     5.440000000
H     0.067000000     2.474000000     5.155000000
O     5.617000000     1.022000000     0.138000000
H     4.826000000     1.329000000    -0.305000000
H     5.724000000     1.619000000     0.878000000
O    -3.293000000    -1.703000000    -6.015000000
H    -2.439000000    -1.628000000    -6.441000000
H    -3.917000000    -1.405000000    -6.676000000
O     6.250000000     0.476000000     5.172000000
H     6.721000000    -0.291000000     5.498000000
H     5.390000000     0.141000000     4.920000000
O    -4.161000000     3.661000000    -2.231000000
H    -3.931000000     3.317000000    -1.367000000
H    -4.698000000     2.974000000    -2.626000000
O     4.325000000    -1.641000000     3.814000000
H     4.817000000    -2.442000000     3.632000000
H     4.878000000    -0.938000000     3.473000000
O    -2.603000000     4.086000000     4.971000000
H    -3.359000000     3.859000000     5.512000000
H    -2.978000000     4.531000000     4.211000000
O    -4.151000000    -0.087000000     1.192000000
H    -4.093000000     0.431000000     0.389000000
H    -4.210000000     0.564000000     1.892000000
O    -1.224000000    -6.327000000    -1.445000000
H    -0.514000000    -6.208000000    -0.815000000
H    -1.990000000    -5.944000000    -1.018000000
O    -0.286000000     5.969000000     4.665000000
H     0.182000000     6.345000000     5.411000000
H    -1.103000000     5.638000000     5.038000000
O     2.546000000     2.899000000     6.550000000
H     2.541000000     3.136000000     7.478000000
H     1.657000000     2.591000000     6.376000000
O     3.347000000     2.526000000    -0.325000000
H     2.969000000     2.958000000     0.441000000
H     2.732000000     2.713000000    -1.034000000
O    -2.492000000    -4.116000000     0.228000000
H    -2.748000000    -4.531000000     1.051000000
H    -2.402000000    -3.188000000     0.447000000
O     0.666000000     1.552000000    -4.248000000
H     1.207000000     1.054000000    -3.635000000
H     0.021000000     1.993000000    -3.695000000
O    -0.673000000    -3.394000000     3.270000000
H     0.083000000    -2.892000000     3.574000000
H    -1.209000000    -2.757000000     2.797000000
O    -5.063000000     2.765000000     3.553000000
H    -5.795000000     2.229000000     3.860000000
H    -5.199000000     3.616000000     3.969000000
O     1.657000000    -4.222000000     0.017000000
H     1.312000000    -3.516000000    -0.530000000
H     2.354000000    -3.811000000     0.528000000
O     1.757000000    -1.711000000     3.836000000
H     2.708000000    -1.781000000     3.913000000
H     1.589000000    -0.769000000     3.802000000
O     2.342000000     4.915000000     4.599000000
H     1.400000000     5.051000000     4.498000000
H     2.414000000     4.187000000     5.217000000
O    -4.478000000    -1.682000000     4.377000000
H    -3.959000000    -1.647000000     5.181000000
H    -4.027000000    -1.090000000     3.775000000
O    -2.848000000    -3.419000000    -3.799000000
H    -2.603000000    -4.214000000    -4.273000000
H    -3.056000000    -2.785000000    -4.486000000
O    -0.401000000    -1.525000000    -5.787000000
H     0.101000000    -1.560000000    -6.601000000
H    -0.218000000    -0.656000000    -5.430000000
O    -1.516000000     1.652000000     8.145000000
H    -1.843000000     0.945000000     7.589000000
H    -1.559000000     2.431000000     7.590000000
O    -3.453000000     0.673000000    -4.139000000
H    -3.523000000    -0.064000000    -4.746000000
H    -2.520000000     0.884000000    -4.124000000
O    -4.741000000     0.657000000    -1.685000000
H    -4.903000000    -0.279000000    -1.569000000
H    -4.358000000     0.727000000    -2.560000000
O     2.424000000     0.106000000    -2.770000000
H     2.096000000    -0.785000000    -2.889000000
H     2.270000000     0.295000000    -1.844000000
