158
-3018.26231
C     1.381000000     0.393000000     0.215000000
H     2.418000000     0.717000000     0.263000000
C     0.873000000    -0.014000000    -1.051000000
H     1.470000000    -0.154000000    -1.948000000
C    -0.482000000    -0.323000000    -1.072000000
H    -0.934000000    -0.745000000    -2.035000000
C    -1.328000000    -0.245000000     0.045000000
H    -2.328000000    -0.645000000    -0.105000000
C    -0.802000000     0.299000000     1.229000000
H    -1.497000000     0.421000000     2.056000000
C     0.556000000     0.569000000     1.334000000
C     1.118000000     1.037000000     2.662000000
O     2.276000000     0.833000000     2.867000000
O     0.399000000     1.577000000     3.506000000
O     4.418000000     2.071000000     2.380000000
H     4.096000000     2.887000000     1.999000000
H     3.627000000     1.571000000     2.580000000
O    -2.898000000     0.204000000    -5.057000000
H    -2.814000000     0.532000000    -5.952000000
H    -3.814000000     0.362000000    -4.829000000
O     4.064000000    -2.144000000    -4.324000000
H     4.609000000    -2.635000000    -3.709000000
H     3.679000000    -2.813000000    -4.890000000
O    -1.423000000     3.446000000     2.369000000
H    -0.713000000     2.844000000     2.593000000
H    -1.884000000     3.590000000     3.195000000
O    -3.772000000     3.444000000    -1.003000000
H    -4.362000000     3.789000000    -1.673000000
H    -3.449000000     2.621000000    -1.370000000
O     0.695000000    -2.693000000     0.535000000
H     0.723000000    -1.758000000     0.331000000
H     0.710000000    -2.730000000     1.491000000
O    -5.498000000    -0.828000000    -2.342000000
H    -5.327000000    -1.168000000    -3.221000000
H    -6.451000000    -0.863000000    -2.253000000
O     1.881000000     3.407000000    -2.589000000
H     1.527000000     3.902000000    -3.327000000
H     1.111000000     3.152000000    -2.080000000
O     1.122000000     2.191000000     6.016000000
H     1.053000000     1.851000000     5.124000000
H     1.988000000     2.598000000     6.050000000
O     3.202000000    -3.943000000     4.192000000
H     2.939000000    -3.034000000     4.041000000
H     2.858000000    -4.150000000     5.061000000
O     1.323000000     4.259000000     4.128000000
H     0.552000000     4.330000000     4.690000000
H     1.608000000     3.351000000     4.226000000
O     5.111000000     1.391000000     5.223000000
H     5.530000000     1.515000000     4.372000000
H     4.256000000     1.813000000     5.133000000
O    -3.386000000    -5.050000000    -0.855000000
H    -2.498000000    -4.739000000    -1.030000000
H    -3.905000000    -4.252000000    -0.756000000
O     4.252000000     1.924000000    -3.151000000
H     4.810000000     2.461000000    -2.589000000
H     3.379000000     2.304000000    -3.056000000
O     3.037000000    -4.334000000    -0.455000000
H     3.842000000    -3.994000000    -0.063000000
H     2.434000000    -3.590000000    -0.446000000
O    -1.433000000     0.099000000     4.686000000
H    -1.191000000    -0.826000000     4.739000000
H    -0.714000000     0.507000000     4.205000000
O    -5.510000000     2.299000000     0.769000000
H    -4.858000000     2.482000000     0.092000000
H    -6.076000000     1.631000000     0.382000000
O    -4.223000000    -0.305000000     4.335000000
H    -3.279000000    -0.167000000     4.264000000
H    -4.487000000     0.226000000     5.087000000
O     6.827000000    -1.010000000     2.880000000
H     5.922000000    -1.066000000     2.575000000
H     6.791000000    -1.300000000     3.791000000
O    -2.482000000     0.818000000     7.113000000
H    -3.325000000     1.136000000     6.790000000
H    -2.058000000     0.438000000     6.343000000
O    -0.681000000     2.801000000    -3.733000000
H    -1.469000000     3.297000000    -3.955000000
H    -0.803000000     2.555000000    -2.816000000
O    -1.437000000     5.105000000     5.641000000
H    -1.729000000     6.009000000     5.526000000
H    -2.094000000     4.581000000     5.183000000
O    -5.334000000     1.231000000    -4.730000000
H    -5.894000000     0.685000000    -5.281000000
H    -5.945000000     1.776000000    -4.234000000
O    -0.359000000    -4.848000000    -1.024000000
H     0.281000000    -5.513000000    -1.279000000
H     0.139000000    -4.228000000    -0.491000000
O    -4.633000000    -2.555000000    -0.374000000
H    -4.846000000    -1.814000000    -0.942000000
H    -4.815000000    -2.238000000     0.511000000
O    -3.389000000     1.037000000    -2.221000000
H    -2.881000000     0.757000000    -2.982000000
H    -4.078000000     0.378000000    -2.137000000
O     0.989000000    -0.717000000    -8.094000000
H     1.125000000     0.230000000    -8.105000000
H     0.415000000    -0.868000000    -7.343000000
O     5.042000000     0.052000000    -0.941000000
H     5.471000000     0.795000000    -0.517000000
H     4.664000000     0.418000000    -1.740000000
O     3.250000000     4.269000000     1.703000000
H     2.663000000     4.347000000     2.454000000
H     3.610000000     5.148000000     1.587000000
O    -4.117000000    -4.476000000    -3.781000000
H    -3.229000000    -4.193000000    -3.561000000
H    -4.197000000    -4.303000000    -4.720000000
O     5.409000000    -3.308000000     0.469000000
H     5.567000000    -3.929000000     1.181000000
H     5.293000000    -2.465000000     0.908000000
O    -1.781000000    -3.646000000     2.350000000
H    -2.161000000    -2.870000000     1.938000000
H    -1.018000000    -3.316000000     2.825000000
O     1.023000000     0.198000000     7.858000000
H     1.876000000     0.495000000     8.175000000
H     0.945000000     0.585000000     6.986000000
O     4.508000000     3.890000000    -0.820000000
H     3.929000000     3.689000000    -1.555000000
H     3.915000000     4.122000000    -0.105000000
O     6.631000000     1.453000000     0.942000000
H     7.043000000     0.738000000     1.426000000
H     5.814000000     1.621000000     1.412000000
O     1.984000000    -0.241000000    -4.903000000
H     2.781000000    -0.766000000    -4.830000000
H     2.239000000     0.627000000    -4.590000000
O     0.599000000     2.943000000    -6.213000000
H     0.017000000     3.588000000    -6.615000000
H     0.112000000     2.619000000    -5.455000000
O    -0.154000000     2.706000000    -0.847000000
H    -0.404000000     3.084000000    -0.004000000
H    -0.217000000     1.760000000    -0.714000000
O    -1.397000000    -3.658000000    -3.578000000
H    -1.006000000    -3.821000000    -2.720000000
H    -0.650000000    -3.552000000    -4.167000000
O     0.402000000    -2.460000000     3.836000000
H     1.081000000    -1.787000000     3.871000000
H     0.259000000    -2.705000000     4.750000000
O     4.371000000    -0.930000000     1.391000000
H     4.782000000    -0.617000000     0.586000000
H     3.810000000    -0.207000000     1.671000000
O    -5.559000000    -1.062000000     1.795000000
H    -6.419000000    -0.759000000     2.087000000
H    -4.990000000    -0.936000000     2.554000000
O    -3.361000000    -2.519000000    -6.167000000
H    -2.866000000    -1.783000000    -6.529000000
H    -3.833000000    -2.147000000    -5.423000000
O    -2.039000000     4.920000000     0.364000000
H    -2.829000000     4.443000000     0.111000000
H    -1.767000000     4.514000000     1.187000000
O    -0.353000000     3.577000000     7.886000000
H    -0.736000000     4.307000000     7.398000000
H    -0.034000000     2.979000000     7.210000000
O    -0.422000000    -0.970000000    -5.780000000
H    -1.163000000    -0.633000000    -5.277000000
H     0.347000000    -0.578000000    -5.366000000
O     0.284000000    -3.572000000    -5.517000000
H     1.225000000    -3.573000000    -5.692000000
H     0.040000000    -2.646000000    -5.528000000
O     2.761000000    -1.210000000     4.430000000
H     3.130000000    -0.877000000     5.247000000
H     2.727000000    -0.447000000     3.853000000
