158
-3053.15145
C     1.302000000    -0.012000000     0.732000000
H     2.292000000     0.021000000     1.180000000
C     1.076000000    -0.564000000    -0.520000000
H     1.912000000    -1.044000000    -1.022000000
C    -0.138000000    -0.436000000    -1.143000000
H    -0.308000000    -0.931000000    -2.122000000
C    -1.234000000     0.167000000    -0.488000000
H    -2.251000000     0.251000000    -0.863000000
C    -1.055000000     0.663000000     0.799000000
H    -1.876000000     1.115000000     1.349000000
C     0.216000000     0.599000000     1.421000000
C     0.396000000     1.171000000     2.819000000
O     1.556000000     1.375000000     3.251000000
O    -0.588000000     1.491000000     3.426000000
O    -2.348000000     0.756000000     6.506000000
H    -1.834000000     1.563000000     6.549000000
H    -2.518000000     0.629000000     5.573000000
O     4.898000000     1.358000000     1.340000000
H     4.281000000     1.419000000     0.611000000
H     4.458000000     1.802000000     2.064000000
O    -4.734000000    -2.495000000     2.659000000
H    -4.963000000    -1.891000000     3.367000000
H    -3.831000000    -2.750000000     2.845000000
O     1.030000000     4.380000000     5.499000000
H     1.330000000     4.305000000     4.593000000
H     0.177000000     4.809000000     5.434000000
O    -2.095000000     3.741000000     3.155000000
H    -1.365000000     3.159000000     3.368000000
H    -2.836000000     3.384000000     3.646000000
O    -2.192000000     3.064000000    -3.982000000
H    -2.174000000     3.922000000    -3.559000000
H    -2.883000000     2.585000000    -3.524000000
O    -0.766000000    -3.062000000     0.393000000
H    -0.344000000    -2.272000000     0.058000000
H    -1.211000000    -2.776000000     1.191000000
O    -4.135000000     1.666000000    -2.761000000
H    -4.768000000     1.883000000    -3.446000000
H    -4.649000000     1.661000000    -1.953000000
O     1.817000000     1.296000000    -3.276000000
H     1.346000000     0.569000000    -2.869000000
H     1.231000000     1.605000000    -3.967000000
O     0.881000000     1.832000000     6.565000000
H     0.644000000     1.375000000     5.758000000
H     0.928000000     2.754000000     6.313000000
O     1.767000000     3.850000000     2.352000000
H     1.740000000     3.000000000     2.792000000
H     1.016000000     3.837000000     1.760000000
O     4.058000000     2.404000000     4.336000000
H     3.124000000     2.424000000     4.127000000
H     4.096000000     2.557000000     5.280000000
O    -2.104000000    -2.862000000    -2.463000000
H    -1.193000000    -2.791000000    -2.180000000
H    -2.204000000    -2.178000000    -3.125000000
O     1.165000000    -5.190000000     0.131000000
H     1.988000000    -4.873000000     0.503000000
H     0.487000000    -4.692000000     0.588000000
O    -1.168000000    -6.077000000    -4.894000000
H    -1.157000000    -5.768000000    -5.800000000
H    -1.336000000    -5.291000000    -4.374000000
O    -2.698000000    -0.117000000     3.697000000
H    -2.497000000    -0.956000000     3.283000000
H    -1.973000000     0.454000000     3.446000000
O     3.645000000     0.124000000     6.677000000
H     3.614000000     1.047000000     6.929000000
H     4.539000000    -0.008000000     6.362000000
O     0.609000000    -2.508000000     4.836000000
H     0.735000000    -2.442000000     5.783000000
H     1.192000000    -1.843000000     4.470000000
O    -4.654000000     2.646000000     0.823000000
H    -5.231000000     2.139000000     0.251000000
H    -4.947000000     2.431000000     1.709000000
O    -5.302000000     0.578000000     3.817000000
H    -4.352000000     0.471000000     3.767000000
H    -5.587000000    -0.098000000     4.432000000
O     0.138000000     2.241000000    -5.045000000
H     0.448000000     2.903000000    -5.663000000
H    -0.674000000     2.605000000    -4.692000000
O    -1.316000000     6.365000000     3.488000000
H    -1.542000000     6.590000000     4.391000000
H    -1.825000000     5.575000000     3.304000000
O     0.734000000    -4.087000000    -2.651000000
H     1.648000000    -4.143000000    -2.929000000
H     0.689000000    -4.630000000    -1.863000000
O    -5.864000000    -2.036000000    -3.678000000
H    -5.982000000    -1.321000000    -4.302000000
H    -5.358000000    -1.649000000    -2.963000000
O    -3.031000000    -0.614000000    -4.192000000
H    -2.996000000    -0.185000000    -5.047000000
H    -3.301000000     0.078000000    -3.588000000
O     3.552000000    -4.289000000    -3.528000000
H     3.545000000    -5.245000000    -3.576000000
H     4.406000000    -4.074000000    -3.152000000
O    -1.363000000    -6.836000000    -1.754000000
H    -1.682000000    -7.668000000    -2.104000000
H    -1.459000000    -6.219000000    -2.480000000
O     0.561000000     0.391000000    -6.722000000
H     0.455000000     1.086000000    -6.072000000
H     0.748000000    -0.393000000    -6.206000000
O     6.280000000    -3.274000000    -0.038000000
H     6.106000000    -3.368000000    -0.975000000
H     5.603000000    -2.672000000     0.272000000
O     4.773000000    -0.675000000    -1.192000000
H     4.639000000    -0.987000000    -0.298000000
H     4.511000000     0.245000000    -1.167000000
O     4.284000000     1.869000000    -3.827000000
H     4.511000000     2.718000000    -3.447000000
H     3.327000000     1.858000000    -3.832000000
O     3.589000000     4.556000000     0.548000000
H     3.054000000     4.405000000     1.327000000
H     4.420000000     4.886000000     0.888000000
O     3.528000000    -4.079000000     0.882000000
H     3.833000000    -4.550000000     1.657000000
H     3.720000000    -3.160000000     1.069000000
O    -4.251000000     2.911000000     4.719000000
H    -4.677000000     3.160000000     5.539000000
H    -4.818000000     2.233000000     4.351000000
O    -6.418000000     1.211000000    -0.907000000
H    -6.383000000     0.289000000    -0.654000000
H    -7.201000000     1.281000000    -1.452000000
O    -4.340000000    -4.306000000    -3.472000000
H    -4.922000000    -3.547000000    -3.513000000
H    -3.551000000    -3.980000000    -3.039000000
O     3.217000000     1.901000000    -0.620000000
H     2.743000000     1.993000000    -1.447000000
H     3.162000000     2.767000000    -0.216000000
O     4.148000000    -1.054000000    -4.177000000
H     4.369000000    -0.124000000    -4.234000000
H     4.364000000    -1.297000000    -3.277000000
O     0.151000000     3.471000000    -0.378000000
H     0.235000000     3.056000000    -1.236000000
H    -0.755000000     3.780000000    -0.349000000
O    -3.012000000    -2.767000000    -5.925000000
H    -2.878000000    -1.958000000    -5.431000000
H    -2.497000000    -2.648000000    -6.723000000
O    -1.298000000    -2.478000000     2.999000000
H    -1.842000000    -3.140000000     3.426000000
H    -0.516000000    -2.419000000     3.548000000
O     4.570000000    -1.450000000     1.215000000
H     4.470000000    -0.503000000     1.310000000
H     5.020000000    -1.725000000     2.014000000
O    -5.920000000    -1.338000000    -0.018000000
H    -6.824000000    -1.596000000     0.163000000
H    -5.437000000    -1.593000000     0.768000000
O    -2.559000000     4.079000000     0.308000000
H    -3.318000000     3.502000000     0.225000000
H    -2.363000000     4.084000000     1.245000000
O    -1.828000000    -5.563000000     0.837000000
H    -1.523000000    -6.198000000     0.188000000
H    -1.516000000    -4.719000000     0.510000000
O     1.392000000    -2.001000000    -4.624000000
H     2.200000000    -1.529000000    -4.423000000
H     1.260000000    -2.580000000    -3.874000000
O    -0.127000000    -2.561000000    -6.822000000
H     0.492000000    -2.489000000    -7.548000000
H     0.411000000    -2.459000000    -6.037000000
O     2.531000000    -0.778000000     4.287000000
H     2.916000000    -0.503000000     5.120000000
H     2.157000000     0.023000000     3.921000000
