158
-3016.18087
C     1.312000000     0.100000000     0.780000000
H     2.300000000     0.112000000     1.232000000
C     1.177000000    -0.462000000    -0.514000000
H     2.088000000    -0.836000000    -0.973000000
C    -0.066000000    -0.365000000    -1.138000000
H    -0.227000000    -0.814000000    -2.195000000
C    -1.236000000     0.059000000    -0.488000000
H    -2.155000000    -0.054000000    -1.057000000
C    -1.116000000     0.565000000     0.797000000
H    -2.039000000     0.754000000     1.340000000
C     0.148000000     0.543000000     1.461000000
C     0.216000000     1.035000000     2.907000000
O     1.173000000     0.731000000     3.514000000
O    -0.819000000     1.168000000     3.550000000
O    -5.043000000     2.518000000    -4.550000000
H    -4.699000000     2.456000000    -3.659000000
H    -4.284000000     2.359000000    -5.111000000
O     5.533000000    -0.357000000     2.287000000
H     4.810000000     0.213000000     2.547000000
H     5.914000000     0.072000000     1.521000000
O    -4.051000000     4.670000000     4.626000000
H    -4.594000000     4.023000000     4.177000000
H    -3.204000000     4.238000000     4.736000000
O     3.250000000    -4.510000000    -5.342000000
H     2.604000000    -3.858000000    -5.613000000
H     3.192000000    -5.196000000    -6.007000000
O    -4.359000000     3.449000000     1.670000000
H    -4.241000000     2.903000000     2.448000000
H    -5.015000000     2.985000000     1.150000000
O    -0.295000000     5.517000000    -4.407000000
H    -1.023000000     6.131000000    -4.309000000
H    -0.700000000     4.653000000    -4.333000000
O    -3.649000000     1.060000000     3.270000000
H    -2.710000000     1.049000000     3.452000000
H    -4.045000000     0.627000000     4.027000000
O    -1.457000000     3.015000000    -3.848000000
H    -0.722000000     2.448000000    -3.613000000
H    -2.047000000     2.449000000    -4.346000000
O     5.147000000    -2.943000000     1.841000000
H     5.225000000    -2.008000000     2.033000000
H     5.257000000    -3.002000000     0.892000000
O    -1.632000000     4.315000000    -1.443000000
H    -0.964000000     3.960000000    -0.857000000
H    -1.477000000     3.873000000    -2.278000000
O     2.669000000     3.508000000     1.307000000
H     3.026000000     2.745000000     1.761000000
H     3.436000000     3.958000000     0.955000000
O    -1.829000000     3.327000000     4.901000000
H    -1.014000000     3.768000000     5.139000000
H    -1.549000000     2.494000000     4.521000000
O    -4.484000000     0.697000000     0.634000000
H    -4.089000000    -0.112000000     0.309000000
H    -4.176000000     0.768000000     1.537000000
O     3.685000000     1.648000000     3.467000000
H     2.735000000     1.550000000     3.525000000
H     3.875000000     2.442000000     3.967000000
O     3.833000000    -1.355000000     6.697000000
H     3.141000000    -1.257000000     6.043000000
H     3.522000000    -2.053000000     7.272000000
O    -4.569000000     2.601000000    -1.744000000
H    -4.156000000     2.010000000    -1.115000000
H    -4.126000000     3.439000000    -1.612000000
O    -1.459000000    -3.413000000    -5.970000000
H    -0.680000000    -3.785000000    -5.558000000
H    -1.365000000    -3.628000000    -6.898000000
O     2.278000000     5.098000000     3.728000000
H     1.874000000     5.948000000     3.554000000
H     2.037000000     4.560000000     2.974000000
O    -2.706000000     0.956000000    -5.289000000
H    -1.821000000     0.606000000    -5.389000000
H    -3.215000000     0.519000000    -5.972000000
O     0.924000000    -3.170000000     3.109000000
H     0.541000000    -3.784000000     3.736000000
H     1.575000000    -3.688000000     2.635000000
O     3.524000000     2.672000000    -4.282000000
H     4.035000000     3.338000000    -3.823000000
H     3.711000000     2.823000000    -5.209000000
O    -4.285000000    -3.236000000     1.459000000
H    -3.335000000    -3.163000000     1.560000000
H    -4.453000000    -2.947000000     0.563000000
O    -0.360000000     1.263000000     8.573000000
H    -1.249000000     1.425000000     8.257000000
H     0.193000000     1.381000000     7.800000000
O    -1.519000000    -2.340000000     1.856000000
H    -1.365000000    -1.415000000     1.663000000
H    -0.655000000    -2.685000000     2.083000000
O    -4.344000000    -0.339000000     6.083000000
H    -3.431000000    -0.541000000     5.879000000
H    -4.373000000    -0.300000000     7.039000000
O     1.160000000     2.063000000    -2.932000000
H     1.029000000     2.493000000    -2.087000000
H     2.098000000     2.152000000    -3.104000000
O    -6.392000000    -1.888000000    -3.534000000
H    -5.875000000    -1.089000000    -3.639000000
H    -6.918000000    -1.731000000    -2.750000000
O    -1.416000000    -0.147000000     5.765000000
H    -0.753000000    -0.805000000     5.973000000
H    -0.977000000     0.451000000     5.160000000
O    -1.866000000    -5.620000000    -3.092000000
H    -1.673000000    -4.704000000    -3.289000000
H    -2.415000000    -5.586000000    -2.308000000
O     0.297000000    -2.402000000     6.692000000
H     0.967000000    -2.665000000     7.323000000
H     0.791000000    -2.069000000     5.943000000
O    -4.352000000    -1.938000000    -0.930000000
H    -4.008000000    -2.588000000    -1.543000000
H    -4.843000000    -1.327000000    -1.479000000
O     0.025000000    -3.187000000    -3.536000000
H     0.324000000    -2.278000000    -3.578000000
H     0.723000000    -3.648000000    -3.071000000
O     1.698000000    -2.470000000    -6.885000000
H     1.886000000    -1.537000000    -6.990000000
H     1.547000000    -2.786000000    -7.776000000
O     2.597000000    -4.312000000    -2.440000000
H     2.885000000    -5.102000000    -1.983000000
H     2.695000000    -4.523000000    -3.369000000
O     6.767000000    -3.387000000    -1.723000000
H     5.857000000    -3.181000000    -1.509000000
H     6.831000000    -3.239000000    -2.666000000
O     5.937000000     1.702000000    -2.742000000
H     5.190000000     1.154000000    -2.985000000
H     6.092000000     1.499000000    -1.820000000
O     1.788000000    -1.275000000     4.803000000
H     1.525000000    -0.462000000     4.373000000
H     1.652000000    -1.952000000     4.140000000
O    -1.904000000     6.504000000     3.848000000
H    -1.709000000     5.663000000     4.262000000
H    -2.666000000     6.328000000     3.296000000
O    -2.598000000    -2.601000000    -3.370000000
H    -2.896000000    -2.836000000    -4.249000000
H    -1.649000000    -2.728000000    -3.396000000
O     3.933000000    -0.147000000    -3.415000000
H     3.668000000     0.654000000    -3.868000000
H     4.685000000    -0.466000000    -3.913000000
O    -1.196000000    -1.110000000    -8.329000000
H    -1.559000000    -0.292000000    -8.668000000
H    -0.941000000    -0.904000000    -7.430000000
O     4.209000000    -2.342000000    -1.244000000
H     3.536000000    -2.857000000    -1.689000000
H     4.099000000    -1.455000000    -1.588000000
O     0.118000000     0.769000000    -5.284000000
H     0.686000000     0.681000000    -6.049000000
H     0.659000000     1.220000000    -4.635000000
O    -2.973000000     2.708000000     7.263000000
H    -2.629000000     3.468000000     7.732000000
H    -2.621000000     2.794000000     6.377000000
O     0.627000000     3.152000000    -0.377000000
H     1.272000000     3.326000000     0.309000000
H     0.297000000     2.276000000    -0.178000000
O     0.374000000     4.573000000     5.927000000
H     0.074000000     4.666000000     6.831000000
H     1.170000000     5.103000000     5.882000000
O    -4.454000000    -0.174000000    -3.120000000
H    -4.307000000     0.727000000    -3.407000000
H    -3.687000000    -0.653000000    -3.434000000
O     1.156000000     1.858000000     6.437000000
H     1.201000000     2.775000000     6.168000000
H     1.250000000     1.364000000     5.622000000
