158
-3019.85087
C     0.998000000    -0.599000000     0.851000000
H     1.822000000    -1.110000000     1.343000000
C     0.644000000    -1.057000000    -0.376000000
H     1.103000000    -1.954000000    -0.784000000
C    -0.330000000    -0.369000000    -1.095000000
H    -0.607000000    -0.735000000    -2.134000000
C    -0.932000000     0.720000000    -0.520000000
H    -1.698000000     1.157000000    -1.155000000
C    -0.609000000     1.221000000     0.690000000
H    -1.213000000     2.004000000     1.140000000
C     0.414000000     0.563000000     1.378000000
C     0.861000000     0.992000000     2.736000000
O     2.035000000     0.906000000     3.058000000
O     0.093000000     1.404000000     3.585000000
O    -1.953000000    -0.364000000     7.616000000
H    -1.782000000    -0.360000000     6.674000000
H    -1.558000000    -1.178000000     7.927000000
O     4.497000000    -0.335000000     2.288000000
H     3.963000000     0.445000000     2.439000000
H     4.536000000    -0.767000000     3.141000000
O     2.174000000     3.369000000     1.009000000
H     2.334000000     2.591000000     1.545000000
H     1.776000000     3.997000000     1.612000000
O    -2.456000000     4.299000000    -2.901000000
H    -1.511000000     4.449000000    -2.897000000
H    -2.660000000     4.027000000    -2.006000000
O     2.292000000     3.761000000     6.155000000
H     2.849000000     3.257000000     5.561000000
H     1.471000000     3.270000000     6.188000000
O    -0.987000000     4.045000000     3.265000000
H    -0.633000000     3.155000000     3.269000000
H    -1.769000000     3.988000000     2.717000000
O    -3.609000000     2.276000000    -4.595000000
H    -4.566000000     2.261000000    -4.573000000
H    -3.368000000     2.997000000    -4.013000000
O    -1.792000000    -2.981000000     0.836000000
H    -1.326000000    -2.162000000     1.003000000
H    -1.109000000    -3.652000000     0.852000000
O    -4.095000000     2.783000000    -0.702000000
H    -3.880000000     1.861000000    -0.560000000
H    -5.045000000     2.826000000    -0.601000000
O     2.675000000    -3.142000000     6.697000000
H     2.612000000    -2.376000000     6.125000000
H     3.383000000    -3.664000000     6.320000000
O    -0.100000000    -5.168000000     0.733000000
H     0.801000000    -5.267000000     0.426000000
H    -0.394000000    -6.063000000     0.907000000
O     1.796000000     1.313000000    -2.007000000
H     1.743000000     1.152000000    -2.949000000
H     1.030000000     0.868000000    -1.645000000
O     0.493000000     2.038000000     6.060000000
H     0.539000000     1.612000000     5.203000000
H    -0.441000000     2.181000000     6.206000000
O    -0.920000000     5.921000000     5.475000000
H    -0.825000000     5.418000000     4.667000000
H    -0.897000000     5.264000000     6.171000000
O    -5.038000000     2.173000000     2.142000000
H    -5.376000000     1.277000000     2.108000000
H    -5.778000000     2.718000000     1.874000000
O     3.593000000     2.738000000     4.161000000
H     3.114000000     1.984000000     3.818000000
H     4.514000000     2.488000000     4.094000000
O     4.017000000    -0.032000000    -4.270000000
H     4.656000000     0.644000000    -4.495000000
H     3.410000000     0.401000000    -3.671000000
O    -1.898000000    -2.327000000    -6.917000000
H    -1.756000000    -3.107000000    -6.380000000
H    -2.353000000    -1.716000000    -6.337000000
O    -1.273000000    -4.675000000    -2.456000000
H    -0.430000000    -4.222000000    -2.440000000
H    -1.462000000    -4.863000000    -1.537000000
O    -1.700000000    -0.252000000     4.889000000
H    -1.417000000    -1.101000000     4.550000000
H    -1.134000000     0.382000000     4.449000000
O     4.363000000    -0.026000000     6.193000000
H     5.034000000    -0.392000000     6.769000000
H     4.661000000     0.866000000     6.016000000
O     0.136000000    -2.476000000     4.232000000
H     0.021000000    -3.035000000     5.001000000
H     1.007000000    -2.095000000     4.340000000
O     3.118000000    -2.450000000    -4.158000000
H     3.385000000    -1.531000000    -4.137000000
H     3.762000000    -2.873000000    -4.726000000
O    -1.291000000     4.591000000     7.828000000
H    -0.493000000     4.407000000     8.325000000
H    -1.435000000     3.803000000     7.305000000
O    -4.447000000     0.022000000    -0.278000000
H    -3.862000000    -0.085000000     0.472000000
H    -5.292000000    -0.308000000     0.028000000
O    -4.786000000    -0.439000000     4.358000000
H    -3.845000000    -0.298000000     4.255000000
H    -4.883000000    -0.766000000     5.252000000
O    -2.103000000     2.185000000     6.252000000
H    -2.259000000     1.270000000     6.484000000
H    -2.800000000     2.397000000     5.631000000
O     1.381000000     5.480000000     2.696000000
H     1.591000000     6.055000000     3.432000000
H     0.679000000     4.918000000     3.024000000
O    -1.181000000    -4.374000000    -5.083000000
H    -0.399000000    -4.704000000    -5.524000000
H    -1.027000000    -4.552000000    -4.155000000
O    -3.179000000    -0.282000000    -5.484000000
H    -4.069000000    -0.607000000    -5.623000000
H    -3.298000000     0.557000000    -5.040000000
O     3.120000000    -4.737000000     2.541000000
H     3.002000000    -4.402000000     1.651000000
H     3.148000000    -5.688000000     2.437000000
O    -3.154000000    -6.328000000    -3.493000000
H    -2.711000000    -5.495000000    -3.335000000
H    -3.847000000    -6.117000000    -4.118000000
O    -5.422000000    -3.211000000    -1.823000000
H    -6.148000000    -3.816000000    -1.973000000
H    -4.969000000    -3.169000000    -2.666000000
O     1.532000000    -4.010000000    -2.544000000
H     2.123000000    -4.743000000    -2.371000000
H     2.036000000    -3.426000000    -3.110000000
O    -4.622000000     2.687000000     4.928000000
H    -4.401000000     2.481000000     4.020000000
H    -5.547000000     2.933000000     4.899000000
O    -6.605000000     0.534000000    -2.480000000
H    -6.397000000     0.732000000    -3.394000000
H    -5.755000000     0.385000000    -2.068000000
O     6.772000000    -2.999000000     0.017000000
H     5.963000000    -2.508000000     0.159000000
H     7.452000000    -2.328000000    -0.044000000
O     1.248000000    -0.170000000     7.610000000
H     2.056000000    -0.338000000     7.125000000
H     0.785000000     0.484000000     7.086000000
O     4.075000000     2.447000000    -0.970000000
H     3.676000000     2.862000000    -0.206000000
H     3.369000000     1.928000000    -1.356000000
O     1.476000000     1.182000000    -4.674000000
H     0.852000000     0.772000000    -5.272000000
H     2.334000000     0.968000000    -5.039000000
O     0.284000000     3.265000000    -3.186000000
H     0.690000000     2.788000000    -2.463000000
H     0.552000000     2.786000000    -3.970000000
O     3.424000000    -3.442000000    -0.347000000
H     2.574000000    -3.274000000    -0.752000000
H     3.971000000    -2.707000000    -0.623000000
O     4.675000000    -1.019000000    -0.429000000
H     4.515000000    -0.645000000     0.438000000
H     5.134000000    -0.328000000    -0.906000000
O    -4.141000000    -3.206000000    -4.102000000
H    -4.464000000    -2.552000000    -4.721000000
H    -3.211000000    -3.295000000    -4.311000000
O    -3.190000000     4.344000000     1.274000000
H    -3.487000000     3.785000000     0.557000000
H    -3.890000000     4.292000000     1.925000000
O    -0.326000000     0.185000000    -6.254000000
H    -1.167000000     0.169000000    -5.797000000
H    -0.558000000     0.164000000    -7.183000000
O     0.942000000    -2.214000000    -7.568000000
H     1.488000000    -1.428000000    -7.574000000
H     0.116000000    -1.928000000    -7.177000000
O     2.544000000    -1.151000000     4.632000000
H     3.217000000    -0.647000000     5.090000000
H     2.193000000    -0.545000000     3.980000000
