158
-3057.37622
C     1.077000000    -0.417000000     0.829000000
H     1.966000000    -0.748000000     1.360000000
C     0.894000000    -0.788000000    -0.487000000
H     1.671000000    -1.371000000    -0.975000000
C    -0.211000000    -0.324000000    -1.141000000
H    -0.380000000    -0.629000000    -2.199000000
C    -1.132000000     0.504000000    -0.586000000
H    -1.919000000     0.802000000    -1.274000000
C    -0.989000000     0.849000000     0.767000000
H    -1.650000000     1.624000000     1.147000000
C     0.117000000     0.395000000     1.512000000
C     0.342000000     0.922000000     2.910000000
O    -0.469000000     1.590000000     3.533000000
O     1.252000000     0.506000000     3.597000000
O     0.953000000     4.097000000     1.301000000
H     0.551000000     4.062000000     2.169000000
H     1.673000000     4.721000000     1.396000000
O    -1.648000000    -2.631000000     0.272000000
H    -2.472000000    -2.174000000     0.102000000
H    -0.984000000    -1.941000000     0.255000000
O     1.996000000     2.589000000     5.080000000
H     1.375000000     2.865000000     5.754000000
H     1.466000000     2.093000000     4.455000000
O     5.887000000    -0.868000000    -2.160000000
H     5.923000000    -0.891000000    -1.204000000
H     4.952000000    -0.822000000    -2.363000000
O     0.690000000    -4.319000000    -3.497000000
H     1.247000000    -4.381000000    -2.720000000
H    -0.167000000    -4.625000000    -3.201000000
O     4.529000000     3.177000000     4.508000000
H     3.605000000     3.015000000     4.703000000
H     4.546000000     4.066000000     4.152000000
O    -0.371000000     4.450000000    -1.093000000
H    -1.294000000     4.351000000    -0.862000000
H     0.104000000     4.098000000    -0.340000000
O     2.654000000    -4.081000000     5.512000000
H     2.199000000    -3.272000000     5.277000000
H     3.179000000    -4.293000000     4.740000000
O     3.634000000    -2.212000000    -3.052000000
H     3.449000000    -2.430000000    -2.139000000
H     3.334000000    -1.308000000    -3.148000000
O     3.287000000     2.978000000    -3.902000000
H     2.525000000     3.075000000    -4.473000000
H     3.072000000     3.493000000    -3.125000000
O    -2.824000000     0.667000000     4.637000000
H    -3.562000000     1.210000000     4.360000000
H    -2.100000000     0.944000000     4.076000000
O     6.071000000    -0.509000000     0.442000000
H     5.314000000     0.024000000     0.687000000
H     6.545000000    -0.642000000     1.263000000
O     3.870000000    -3.178000000     0.051000000
H     3.999000000    -2.433000000     0.638000000
H     4.665000000    -3.701000000     0.152000000
O    -3.118000000     4.017000000    -0.216000000
H    -3.173000000     4.591000000     0.548000000
H    -3.582000000     3.222000000     0.048000000
O     0.366000000    -5.572000000     0.213000000
H     0.873000000    -5.732000000     1.009000000
H     0.982000000    -5.141000000    -0.380000000
O     1.765000000    -2.700000000    -5.195000000
H     1.094000000    -3.262000000    -4.808000000
H     2.501000000    -2.750000000    -4.586000000
O     3.762000000     0.846000000     2.960000000
H     2.877000000     0.558000000     3.184000000
H     3.991000000     1.472000000     3.647000000
O    -5.103000000    -0.482000000    -2.220000000
H    -5.067000000     0.431000000    -2.505000000
H    -4.454000000    -0.928000000    -2.764000000
O     2.966000000    -0.873000000    -7.622000000
H     2.523000000    -1.173000000    -6.829000000
H     2.712000000     0.046000000    -7.706000000
O    -0.563000000     4.434000000     3.574000000
H    -0.651000000     3.481000000     3.545000000
H    -1.383000000     4.761000000     3.202000000
O     3.064000000     0.489000000    -2.613000000
H     2.490000000     0.956000000    -2.006000000
H     3.497000000     1.181000000    -3.113000000
O     5.683000000    -4.413000000    -2.506000000
H     6.377000000    -4.432000000    -3.165000000
H     5.084000000    -3.730000000    -2.809000000
O     1.107000000    -1.698000000     5.076000000
H     1.334000000    -1.396000000     5.955000000
H     1.016000000    -0.895000000     4.563000000
O    -0.387000000     1.629000000     6.349000000
H    -0.998000000     0.901000000     6.462000000
H    -0.274000000     1.701000000     5.401000000
O     3.917000000     1.595000000     0.336000000
H     3.037000000     1.796000000     0.019000000
H     3.800000000     1.417000000     1.270000000
O    -4.225000000    -0.393000000    -5.698000000
H    -3.554000000     0.198000000    -6.040000000
H    -3.773000000    -0.908000000    -5.030000000
O    -3.533000000     4.373000000    -2.891000000
H    -3.401000000     4.417000000    -1.944000000
H    -3.944000000     3.522000000    -3.037000000
O     3.994000000    -1.863000000     2.462000000
H     4.290000000    -2.518000000     3.094000000
H     4.183000000    -1.023000000     2.881000000
O    -4.405000000    -2.239000000     3.096000000
H    -4.198000000    -1.835000000     2.253000000
H    -3.946000000    -1.699000000     3.739000000
O    -5.114000000     2.070000000    -3.655000000
H    -6.045000000     2.285000000    -3.718000000
H    -4.826000000     1.983000000    -4.564000000
O    -0.804000000    -1.713000000    -7.847000000
H    -0.634000000    -1.423000000    -8.743000000
H    -1.284000000    -0.987000000    -7.448000000
O    -0.798000000     4.453000000     7.145000000
H    -0.929000000     3.575000000     6.786000000
H    -1.664000000     4.860000000     7.101000000
O     0.580000000     1.611000000     8.919000000
H     0.940000000     2.498000000     8.950000000
H     0.283000000     1.505000000     8.015000000
O     1.508000000     2.280000000    -0.934000000
H     1.166000000     2.889000000    -0.280000000
H     0.760000000     1.729000000    -1.164000000
O    -1.764000000    -4.969000000    -2.344000000
H    -2.323000000    -5.745000000    -2.371000000
H    -1.221000000    -5.092000000    -1.565000000
O     1.101000000     2.873000000    -5.397000000
H     0.793000000     2.015000000    -5.105000000
H     0.372000000     3.465000000    -5.210000000
O    -0.825000000    -3.391000000     2.815000000
H     0.119000000    -3.353000000     2.664000000
H    -1.212000000    -3.186000000     1.964000000
O    -4.726000000     2.004000000     0.514000000
H    -4.850000000     2.466000000     1.343000000
H    -5.604000000     1.952000000     0.136000000
O     2.219000000    -0.240000000     7.397000000
H     2.055000000     0.014000000     8.305000000
H     2.275000000     0.589000000     6.922000000
O     2.291000000    -5.012000000    -1.538000000
H     2.585000000    -5.764000000    -2.052000000
H     3.099000000    -4.603000000    -1.229000000
O     1.826000000    -3.869000000     2.047000000
H     2.360000000    -3.750000000     1.261000000
H     2.073000000    -3.141000000     2.617000000
O    -3.451000000    -2.185000000    -3.657000000
H    -3.971000000    -2.831000000    -4.136000000
H    -2.787000000    -2.702000000    -3.202000000
O    -2.778000000    -4.711000000    -5.423000000
H    -2.046000000    -4.484000000    -5.995000000
H    -2.467000000    -4.504000000    -4.542000000
O    -1.297000000     0.824000000    -6.432000000
H    -0.562000000     0.727000000    -5.826000000
H    -0.965000000     1.399000000    -7.122000000
O    -3.484000000     1.528000000     7.458000000
H    -3.356000000     1.073000000     6.625000000
H    -3.086000000     0.951000000     8.110000000
O    -3.944000000    -0.744000000     0.649000000
H    -4.363000000    -0.897000000    -0.198000000
H    -3.926000000     0.209000000     0.739000000
O    -4.927000000     2.204000000     3.674000000
H    -5.819000000     1.912000000     3.862000000
H    -4.809000000     2.982000000     4.219000000
O     0.900000000     0.033000000    -4.957000000
H     0.761000000    -0.866000000    -5.254000000
H     1.472000000    -0.052000000    -4.194000000
