158
-3004.73100
C     1.126000000    -0.244000000     0.870000000
H     2.016000000    -0.519000000     1.431000000
C     0.995000000    -0.646000000    -0.417000000
H     1.767000000    -1.260000000    -0.874000000
C    -0.141000000    -0.360000000    -1.155000000
H    -0.119000000    -0.675000000    -2.132000000
C    -1.141000000     0.439000000    -0.623000000
H    -2.005000000     0.746000000    -1.206000000
C    -0.977000000     0.840000000     0.749000000
H    -1.751000000     1.432000000     1.230000000
C     0.108000000     0.419000000     1.513000000
C     0.247000000     0.781000000     2.920000000
O     1.359000000     0.830000000     3.387000000
O    -0.580000000     1.392000000     3.453000000
O     4.570000000    -1.578000000     1.337000000
H     4.473000000    -0.818000000     1.911000000
H     4.816000000    -1.208000000     0.489000000
O    -4.748000000     2.154000000     4.155000000
H    -5.660000000     2.161000000     4.445000000
H    -4.314000000     1.538000000     4.746000000
O    -4.738000000     0.564000000    -0.854000000
H    -5.036000000    -0.324000000    -1.053000000
H    -4.941000000     0.683000000     0.074000000
O    -4.714000000     0.347000000     1.927000000
H    -3.902000000    -0.122000000     2.118000000
H    -4.651000000     1.153000000     2.440000000
O     1.247000000    -6.835000000    -2.956000000
H     0.669000000    -6.088000000    -2.802000000
H     1.920000000    -6.499000000    -3.547000000
O     5.165000000     2.270000000     0.648000000
H     4.568000000     2.735000000     1.234000000
H     6.039000000     2.521000000     0.948000000
O    -3.402000000     1.587000000    -3.089000000
H    -3.847000000     1.547000000    -2.242000000
H    -2.537000000     1.944000000    -2.888000000
O     3.008000000    -4.360000000     1.103000000
H     3.432000000    -3.517000000     1.264000000
H     3.257000000    -4.585000000     0.206000000
O    -2.074000000     4.496000000    -3.848000000
H    -1.974000000     4.076000000    -4.703000000
H    -1.552000000     3.957000000    -3.254000000
O     1.894000000     3.047000000     1.025000000
H     1.871000000     2.128000000     1.290000000
H     1.377000000     3.501000000     1.690000000
O     6.529000000    -1.506000000     3.033000000
H     6.179000000    -0.677000000     3.359000000
H     6.047000000    -1.665000000     2.221000000
O    -1.109000000     5.950000000     4.425000000
H    -1.430000000     6.846000000     4.321000000
H    -1.891000000     5.405000000     4.339000000
O    -1.848000000     2.202000000     5.631000000
H    -1.079000000     2.247000000     6.200000000
H    -1.488000000     2.074000000     4.753000000
O     4.122000000     0.297000000     3.309000000
H     3.235000000     0.425000000     3.646000000
H     4.548000000     1.146000000     3.426000000
O     3.512000000    -1.301000000    -3.078000000
H     3.947000000    -1.001000000    -2.280000000
H     4.226000000    -1.456000000    -3.696000000
O     3.641000000    -0.853000000     7.533000000
H     2.814000000    -0.651000000     7.094000000
H     3.463000000    -0.698000000     8.461000000
O    -6.638000000     2.032000000    -2.714000000
H    -7.183000000     1.272000000    -2.512000000
H    -5.884000000     1.948000000    -2.129000000
O    -2.342000000    -4.070000000    -5.381000000
H    -1.458000000    -3.706000000    -5.424000000
H    -2.879000000    -3.456000000    -5.881000000
O    -0.010000000     3.836000000     2.835000000
H    -0.601000000     4.464000000     3.251000000
H    -0.258000000     2.990000000     3.207000000
O    -4.133000000     1.628000000    -5.953000000
H    -3.592000000     1.477000000    -5.177000000
H    -3.755000000     1.057000000    -6.622000000
O    -1.222000000     5.283000000     0.002000000
H    -0.783000000     5.253000000     0.852000000
H    -0.601000000     5.731000000    -0.573000000
O    -0.119000000    -3.386000000     2.820000000
H     0.483000000    -2.825000000     3.309000000
H     0.293000000    -4.250000000     2.835000000
O    -3.764000000     5.343000000    -1.209000000
H    -3.517000000     4.590000000    -1.746000000
H    -3.106000000     5.368000000    -0.514000000
O     2.073000000    -0.388000000    -5.399000000
H     2.515000000     0.194000000    -4.781000000
H     2.530000000    -1.224000000    -5.309000000
O    -2.271000000    -2.302000000     1.102000000
H    -2.056000000    -1.394000000     1.314000000
H    -1.513000000    -2.805000000     1.400000000
O     4.603000000     4.435000000     3.114000000
H     5.159000000     3.682000000     3.312000000
H     5.004000000     4.832000000     2.340000000
O     1.415000000     3.286000000    -5.167000000
H     1.514000000     2.565000000    -4.545000000
H     2.131000000     3.884000000    -4.955000000
O    -3.279000000     3.793000000     7.486000000
H    -4.206000000     3.565000000     7.421000000
H    -2.881000000     3.406000000     6.706000000
O    -2.520000000    -0.604000000     3.806000000
H    -2.275000000    -1.191000000     4.521000000
H    -1.750000000    -0.051000000     3.675000000
O     4.376000000     3.620000000     6.387000000
H     3.926000000     3.810000000     7.210000000
H     3.671000000     3.470000000     5.757000000
O    -4.545000000    -2.706000000    -0.756000000
H    -3.665000000    -2.512000000    -0.436000000
H    -4.405000000    -3.110000000    -1.613000000
O    -1.794000000    -5.374000000    -0.339000000
H    -1.659000000    -4.430000000    -0.250000000
H    -1.577000000    -5.562000000    -1.252000000
O     0.108000000    -2.725000000    -5.398000000
H     0.263000000    -1.794000000    -5.238000000
H     0.482000000    -2.884000000    -6.265000000
O    -0.284000000    -4.670000000    -2.957000000
H     0.385000000    -4.070000000    -3.287000000
H    -0.881000000    -4.791000000    -3.695000000
O     1.818000000     3.074000000    -1.819000000
H     1.763000000     2.944000000    -0.872000000
H     2.746000000     3.245000000    -1.983000000
O     1.462000000    -0.520000000     5.877000000
H     1.383000000    -0.243000000     4.964000000
H     1.029000000    -1.373000000     5.907000000
O    -3.448000000     4.479000000     3.848000000
H    -3.568000000     3.532000000     3.925000000
H    -3.788000000     4.694000000     2.980000000
O     0.879000000     5.323000000     6.478000000
H     0.236000000     5.359000000     5.770000000
H     0.600000000     6.005000000     7.089000000
O     2.513000000    -3.787000000    -3.498000000
H     3.002000000    -3.929000000    -4.308000000
H     2.718000000    -2.886000000    -3.248000000
O    -2.764000000    -0.234000000    -7.668000000
H    -2.950000000    -0.022000000    -8.583000000
H    -2.095000000     0.400000000    -7.407000000
O     4.065000000    -4.913000000    -1.394000000
H     4.461000000    -5.689000000    -1.791000000
H     3.358000000    -4.672000000    -1.993000000
O     5.345000000    -0.369000000    -1.118000000
H     6.214000000    -0.616000000    -0.802000000
H     5.270000000     0.562000000    -0.908000000
O    -1.233000000     2.992000000    -6.249000000
H    -0.870000000     2.148000000    -6.518000000
H    -0.473000000     3.503000000    -5.973000000
O    -1.045000000     3.083000000    -1.892000000
H    -0.204000000     2.666000000    -1.704000000
H    -1.151000000     3.731000000    -1.196000000
O     0.726000000     2.113000000     6.923000000
H     1.454000000     2.518000000     6.452000000
H     0.858000000     1.172000000     6.806000000
O    -0.033000000     0.696000000    -7.150000000
H     0.254000000     0.471000000    -8.035000000
H     0.638000000     0.322000000    -6.579000000
O    -4.082000000    -4.040000000    -3.099000000
H    -3.216000000    -3.764000000    -3.400000000
H    -4.012000000    -4.990000000    -3.005000000
O     2.204000000     2.854000000     4.744000000
H     2.082000000     3.557000000     4.105000000
H     1.763000000     2.099000000     4.355000000
