158
-3032.95447
C     0.723000000     1.244000000     0.508000000
H     1.329000000     2.012000000     0.980000000
C     1.289000000     0.240000000    -0.234000000
H     2.348000000     0.128000000    -0.454000000
C     0.503000000    -0.871000000    -0.676000000
H     0.977000000    -1.628000000    -1.334000000
C    -0.820000000    -0.886000000    -0.468000000
H    -1.498000000    -1.657000000    -0.825000000
C    -1.392000000     0.093000000     0.302000000
H    -2.405000000     0.032000000     0.690000000
C    -0.633000000     1.127000000     0.772000000
C    -1.301000000     2.213000000     1.578000000
O    -0.786000000     3.272000000     1.825000000
O    -2.498000000     2.135000000     1.935000000
O    -2.153000000    -0.601000000    -5.764000000
H    -2.067000000    -0.428000000    -4.826000000
H    -2.638000000    -1.425000000    -5.811000000
O    -3.351000000     1.827000000     4.709000000
H    -2.621000000     2.087000000     5.270000000
H    -3.094000000     2.115000000     3.833000000
O    -2.896000000     4.464000000     3.218000000
H    -2.435000000     3.771000000     2.745000000
H    -3.769000000     4.105000000     3.377000000
O     4.992000000    -3.148000000    -4.199000000
H     5.372000000    -2.492000000    -4.783000000
H     5.721000000    -3.732000000    -3.988000000
O    -0.063000000     5.660000000     0.515000000
H    -0.871000000     5.963000000     0.102000000
H    -0.290000000     4.810000000     0.891000000
O     4.726000000    -2.525000000     0.621000000
H     3.902000000    -2.368000000     1.081000000
H     4.464000000    -2.735000000    -0.275000000
O     2.633000000     2.833000000    -2.129000000
H     3.348000000     2.417000000    -1.647000000
H     1.917000000     2.198000000    -2.091000000
O    -1.072000000     2.938000000    -2.916000000
H    -1.325000000     2.428000000    -2.146000000
H    -0.315000000     2.473000000    -3.272000000
O    -3.540000000     1.416000000    -1.617000000
H    -4.358000000     1.796000000    -1.937000000
H    -3.816000000     0.715000000    -1.028000000
O     6.208000000    -5.071000000     0.934000000
H     5.620000000    -4.317000000     0.970000000
H     5.645000000    -5.802000000     0.678000000
O     3.188000000     0.318000000     3.221000000
H     3.913000000     0.928000000     3.085000000
H     2.633000000     0.747000000     3.872000000
O     1.035000000     6.316000000     3.035000000
H     1.887000000     6.746000000     3.095000000
H     0.815000000     6.349000000     2.103000000
O    -6.195000000     0.988000000     0.389000000
H    -5.761000000     0.575000000     1.136000000
H    -5.954000000     0.442000000    -0.359000000
O    -3.685000000    -2.445000000    -4.060000000
H    -3.850000000    -3.096000000    -3.377000000
H    -3.488000000    -1.640000000    -3.580000000
O     3.319000000    -3.876000000    -1.295000000
H     3.751000000    -4.567000000    -1.798000000
H     2.564000000    -4.306000000    -0.896000000
O     3.564000000     4.081000000     2.316000000
H     3.795000000     4.919000000     2.717000000
H     2.729000000     3.845000000     2.720000000
O     1.491000000    -5.779000000    -0.691000000
H     0.701000000    -5.285000000    -0.911000000
H     1.402000000    -5.969000000     0.243000000
O     5.152000000     2.058000000     3.108000000
H     5.626000000     2.402000000     3.866000000
H     4.742000000     2.827000000     2.713000000
O     1.395000000    -1.070000000    -5.039000000
H     0.871000000    -1.845000000    -4.838000000
H     1.626000000    -1.170000000    -5.962000000
O    -5.002000000     0.058000000     2.982000000
H    -4.297000000    -0.587000000     3.032000000
H    -4.609000000     0.868000000     3.308000000
O     0.450000000    -3.711000000    -4.473000000
H     1.140000000    -4.374000000    -4.500000000
H    -0.036000000    -3.837000000    -5.288000000
O    -5.154000000    -0.796000000    -1.244000000
H    -5.401000000    -1.622000000    -0.829000000
H    -5.589000000    -0.817000000    -2.097000000
O     3.666000000    -0.932000000    -2.504000000
H     3.051000000    -0.715000000    -3.205000000
H     3.840000000    -1.866000000    -2.619000000
O    -4.645000000     3.351000000     0.872000000
H    -3.743000000     3.190000000     1.148000000
H    -4.990000000     2.483000000     0.663000000
O    -3.553000000    -4.172000000    -0.923000000
H    -4.098000000    -3.481000000    -0.546000000
H    -4.114000000    -4.587000000    -1.578000000
O     2.323000000    -5.943000000    -4.370000000
H     2.887000000    -5.991000000    -3.598000000
H     2.879000000    -5.562000000    -5.049000000
O    -0.603000000    -0.171000000     5.215000000
H    -0.037000000    -0.648000000     5.822000000
H    -0.652000000    -0.733000000     4.441000000
O     2.055000000     1.434000000     5.410000000
H     1.871000000     1.681000000     6.316000000
H     1.868000000     2.225000000     4.904000000
O     0.949000000     1.686000000    -4.160000000
H     1.070000000     0.755000000    -4.346000000
H     1.236000000     2.130000000    -4.958000000
O     1.740000000    -1.644000000     2.082000000
H     1.368000000    -1.240000000     1.298000000
H     2.258000000    -0.949000000     2.488000000
O    -0.985000000     2.586000000     5.922000000
H    -0.516000000     1.865000000     5.500000000
H    -0.347000000     3.299000000     5.954000000
O    -6.393000000     5.185000000     2.103000000
H    -7.186000000     4.671000000     2.253000000
H    -5.909000000     4.691000000     1.441000000
O     7.233000000    -1.197000000     0.304000000
H     7.586000000    -1.492000000     1.143000000
H     6.350000000    -1.566000000     0.272000000
O     1.355000000     3.592000000     3.582000000
H     1.324000000     4.537000000     3.733000000
H     0.676000000     3.432000000     2.926000000
O    -2.171000000    -0.285000000    -3.124000000
H    -2.777000000     0.414000000    -2.879000000
H    -1.480000000    -0.247000000    -2.462000000
O    -4.871000000     4.518000000     5.755000000
H    -4.932000000     3.608000000     5.465000000
H    -5.190000000     4.504000000     6.658000000
O     4.453000000     1.242000000    -0.746000000
H     4.476000000     0.291000000    -0.859000000
H     4.889000000     1.394000000     0.092000000
O     0.125000000    -7.236000000    -2.593000000
H     0.595000000    -7.017000000    -1.788000000
H     0.684000000    -6.902000000    -3.295000000
O    -2.536000000    -6.893000000    -0.068000000
H    -2.080000000    -6.199000000    -0.545000000
H    -3.242000000    -7.162000000    -0.655000000
O    -0.395000000    -2.519000000     3.367000000
H    -0.119000000    -3.422000000     3.525000000
H     0.210000000    -2.198000000     2.698000000
O    -3.257000000    -1.949000000     2.553000000
H    -2.476000000    -2.288000000     2.992000000
H    -3.525000000    -2.655000000     1.964000000
O     5.931000000     0.369000000    -3.030000000
H     5.152000000    -0.167000000    -2.877000000
H     5.722000000     1.212000000    -2.629000000
O     4.210000000    -6.228000000    -2.027000000
H     3.788000000    -6.383000000    -1.182000000
H     4.842000000    -6.942000000    -2.114000000
O    -1.498000000     6.803000000     3.956000000
H    -0.619000000     6.434000000     3.880000000
H    -2.052000000     6.212000000     3.446000000
O    -3.022000000    -0.484000000     6.302000000
H    -3.426000000     0.171000000     5.733000000
H    -2.090000000    -0.444000000     6.089000000
O    -0.904000000    -4.236000000    -1.476000000
H    -1.813000000    -4.057000000    -1.238000000
H    -0.765000000    -3.740000000    -2.282000000
O     4.567000000     5.173000000    -0.385000000
H     4.119000000     4.877000000     0.408000000
H     4.399000000     4.483000000    -1.027000000
O    -2.664000000     5.941000000    -0.035000000
H    -3.229000000     5.656000000    -0.753000000
H    -2.848000000     5.324000000     0.673000000
