158
-3018.34273
C     1.236000000    -0.153000000     0.803000000
H     2.214000000    -0.201000000     1.273000000
C     1.052000000    -0.633000000    -0.483000000
H     1.946000000    -1.035000000    -0.952000000
C    -0.078000000    -0.355000000    -1.187000000
H    -0.184000000    -0.776000000    -2.179000000
C    -1.157000000     0.257000000    -0.522000000
H    -2.058000000     0.527000000    -1.067000000
C    -0.956000000     0.753000000     0.735000000
H    -1.610000000     1.424000000     1.286000000
C     0.210000000     0.517000000     1.491000000
C     0.202000000     0.874000000     2.953000000
O    -0.371000000     1.847000000     3.284000000
O     0.785000000     0.188000000     3.718000000
O     2.607000000    -2.486000000    -6.675000000
H     1.881000000    -2.828000000    -7.198000000
H     2.383000000    -1.567000000    -6.527000000
O    -0.226000000     4.003000000     1.547000000
H    -0.350000000     3.482000000     2.340000000
H    -0.600000000     4.858000000     1.760000000
O    -4.008000000    -2.279000000     2.896000000
H    -4.201000000    -3.213000000     2.981000000
H    -3.160000000    -2.250000000     2.452000000
O    -5.723000000    -3.092000000     0.285000000
H    -6.642000000    -2.877000000     0.443000000
H    -5.274000000    -2.247000000     0.296000000
O     0.871000000     3.333000000     5.503000000
H     1.464000000     3.932000000     5.047000000
H     0.329000000     2.959000000     4.809000000
O     6.308000000    -3.444000000    -2.553000000
H     6.867000000    -4.211000000    -2.429000000
H     5.659000000    -3.505000000    -1.852000000
O    -2.717000000    -4.456000000    -3.431000000
H    -2.414000000    -4.408000000    -2.524000000
H    -3.495000000    -3.899000000    -3.453000000
O    -1.586000000     3.532000000    -5.666000000
H    -2.098000000     2.935000000    -5.121000000
H    -1.417000000     4.286000000    -5.102000000
O    -3.049000000    -2.767000000     5.888000000
H    -2.995000000    -3.515000000     5.293000000
H    -2.219000000    -2.306000000     5.770000000
O     3.969000000     2.284000000     1.217000000
H     3.059000000     2.374000000     0.933000000
H     3.976000000     2.630000000     2.109000000
O     3.409000000    -3.561000000     5.924000000
H     3.338000000    -4.095000000     5.133000000
H     3.561000000    -2.673000000     5.601000000
O     3.732000000     1.358000000     6.116000000
H     3.415000000     2.243000000     6.298000000
H     2.938000000     0.830000000     6.037000000
O    -1.949000000     4.385000000    -0.924000000
H    -2.747000000     4.338000000    -0.398000000
H    -1.242000000     4.211000000    -0.302000000
O     0.688000000    -3.346000000     6.533000000
H     0.397000000    -2.892000000     5.741000000
H     1.607000000    -3.554000000     6.366000000
O     1.985000000    -3.637000000    -4.270000000
H     1.927000000    -2.988000000    -3.569000000
H     2.524000000    -3.217000000    -4.941000000
O     2.072000000     5.636000000     3.744000000
H     1.457000000     6.059000000     3.145000000
H     2.082000000     6.202000000     4.516000000
O     4.759000000     2.750000000     3.837000000
H     4.004000000     2.278000000     4.188000000
H     5.498000000     2.157000000     3.977000000
O     4.367000000    -3.213000000    -0.287000000
H     4.170000000    -3.009000000     0.628000000
H     4.877000000    -4.022000000    -0.247000000
O    -4.117000000     3.632000000     0.704000000
H    -4.925000000     3.404000000     0.243000000
H    -4.286000000     3.393000000     1.615000000
O    -1.583000000    -4.851000000    -0.437000000
H    -0.643000000    -4.953000000    -0.588000000
H    -1.918000000    -5.748000000    -0.402000000
O    -0.144000000    -1.920000000    -4.787000000
H     0.065000000    -2.723000000    -5.265000000
H     0.513000000    -1.289000000    -5.080000000
O     1.925000000    -5.859000000    -2.404000000
H     1.475000000    -5.435000000    -3.134000000
H     2.839000000    -5.910000000    -2.683000000
O     5.185000000     0.773000000    -1.104000000
H     5.604000000     1.606000000    -1.319000000
H     4.780000000     0.923000000    -0.249000000
O    -5.505000000     1.549000000    -2.053000000
H    -5.953000000     2.338000000    -2.358000000
H    -5.822000000     0.854000000    -2.630000000
O     1.379000000    -0.070000000    -6.516000000
H     0.514000000     0.284000000    -6.722000000
H     1.750000000     0.554000000    -5.892000000
O    -2.117000000     3.490000000     3.970000000
H    -1.611000000     2.807000000     3.530000000
H    -2.999000000     3.405000000     3.609000000
O     3.160000000     3.333000000    -2.703000000
H     2.875000000     3.342000000    -1.789000000
H     3.708000000     4.112000000    -2.791000000
O     0.944000000    -5.895000000    -5.200000000
H     1.081000000    -4.966000000    -5.018000000
H     0.028000000    -6.052000000    -4.971000000
O     7.262000000    -0.807000000    -1.519000000
H     7.211000000    -1.678000000    -1.913000000
H     6.351000000    -0.519000000    -1.456000000
O    -0.316000000    -2.156000000     4.325000000
H     0.064000000    -1.281000000     4.246000000
H    -0.412000000    -2.457000000     3.421000000
O    -1.910000000     0.568000000     5.454000000
H    -1.375000000     0.818000000     4.700000000
H    -2.812000000     0.651000000     5.145000000
O     3.614000000    -1.235000000    -2.945000000
H     4.010000000    -0.658000000    -3.598000000
H     3.918000000    -0.891000000    -2.105000000
O     3.348000000    -0.840000000     4.177000000
H     2.428000000    -0.593000000     4.081000000
H     3.682000000    -0.262000000     4.863000000
O    -3.145000000     2.796000000    -3.243000000
H    -2.761000000     3.291000000    -2.520000000
H    -3.727000000     2.165000000    -2.820000000
O     3.640000000    -2.888000000     2.328000000
H     3.394000000    -3.697000000     2.777000000
H     3.227000000    -2.194000000     2.840000000
O    -2.000000000     4.968000000     6.290000000
H    -2.016000000     4.329000000     5.578000000
H    -2.727000000     5.559000000     6.099000000
O     1.561000000     3.018000000    -0.066000000
H     0.998000000     3.279000000     0.662000000
H     1.048000000     2.366000000    -0.544000000
O     2.359000000     1.755000000    -4.646000000
H     3.132000000     1.237000000    -4.419000000
H     2.363000000     2.478000000    -4.018000000
O    -1.192000000     1.186000000    -7.038000000
H    -1.870000000     0.773000000    -6.504000000
H    -1.308000000     2.125000000    -6.888000000
O    -1.510000000    -2.799000000     1.547000000
H    -1.467000000    -3.425000000     0.824000000
H    -1.302000000    -1.955000000     1.145000000
O    -4.912000000     2.733000000     3.078000000
H    -4.865000000     2.084000000     3.780000000
H    -5.781000000     3.123000000     3.171000000
O     0.910000000     0.617000000     6.535000000
H     0.218000000     0.095000000     6.130000000
H     0.709000000     1.518000000     6.282000000
O     1.628000000    -4.479000000     0.086000000
H     1.797000000    -5.175000000    -0.549000000
H     2.193000000    -3.759000000    -0.192000000
O     0.458000000    -5.077000000     2.368000000
H     0.281000000    -4.719000000     1.498000000
H    -0.143000000    -5.818000000     2.449000000
O    -1.100000000     6.260000000     2.546000000
H    -1.672000000     7.026000000     2.490000000
H    -0.940000000     6.149000000     3.483000000
O     6.596000000    -1.820000000     3.385000000
H     7.138000000    -2.486000000     3.807000000
H     5.772000000    -2.267000000     3.194000000
O    -6.436000000    -0.007000000     0.434000000
H    -6.152000000     0.107000000    -0.473000000
H    -7.150000000     0.622000000     0.542000000
O    -2.888000000    -0.064000000    -5.091000000
H    -2.092000000    -0.521000000    -4.820000000
H    -3.304000000    -0.656000000    -5.717000000
