158
-3047.37917
C     1.317000000     0.434000000     0.526000000
H     2.346000000     0.665000000     0.789000000
C     1.066000000    -0.012000000    -0.706000000
H     1.902000000    -0.161000000    -1.385000000
C    -0.213000000    -0.254000000    -1.161000000
H    -0.319000000    -0.678000000    -2.180000000
C    -1.289000000    -0.104000000    -0.275000000
H    -2.254000000    -0.364000000    -0.704000000
C    -1.019000000     0.228000000     1.049000000
H    -1.859000000     0.270000000     1.737000000
C     0.301000000     0.487000000     1.485000000
C     0.526000000     0.775000000     2.907000000
O     1.674000000     0.633000000     3.416000000
O    -0.427000000     1.063000000     3.679000000
O    -2.688000000     2.308000000     3.997000000
H    -3.461000000     1.816000000     3.720000000
H    -1.970000000     1.676000000     3.943000000
O     5.874000000     0.463000000     4.036000000
H     5.821000000     0.155000000     4.941000000
H     6.807000000     0.625000000     3.892000000
O     3.959000000    -2.373000000    -0.193000000
H     3.264000000    -2.711000000     0.372000000
H     4.745000000    -2.398000000     0.354000000
O    -4.218000000     4.132000000     0.428000000
H    -3.262000000     4.162000000     0.383000000
H    -4.435000000     3.207000000     0.314000000
O    -2.429000000    -1.672000000    -3.480000000
H    -1.775000000    -2.236000000    -3.067000000
H    -3.183000000    -1.709000000    -2.892000000
O    -4.647000000     1.399000000    -0.449000000
H    -3.941000000     1.404000000    -1.096000000
H    -4.418000000     0.688000000     0.150000000
O    -3.037000000     0.138000000    -6.474000000
H    -2.463000000     0.904000000    -6.475000000
H    -3.896000000     0.482000000    -6.721000000
O    -4.735000000    -0.525000000     1.629000000
H    -5.653000000    -0.776000000     1.534000000
H    -4.480000000    -0.869000000     2.485000000
O     3.575000000     2.277000000    -4.655000000
H     3.294000000     1.398000000    -4.403000000
H     4.389000000     2.417000000    -4.171000000
O    -2.782000000     1.773000000    -3.029000000
H    -3.213000000     1.261000000    -3.714000000
H    -1.890000000     1.428000000    -2.997000000
O     2.880000000    -3.968000000     4.524000000
H     3.208000000    -4.780000000     4.137000000
H     3.093000000    -3.293000000     3.879000000
O     1.421000000    -6.402000000    -1.358000000
H     2.193000000    -6.365000000    -0.794000000
H     1.282000000    -5.496000000    -1.634000000
O     2.751000000     3.230000000    -1.082000000
H     3.436000000     2.598000000    -1.300000000
H     2.636000000     3.141000000    -0.136000000
O     4.898000000    -3.047000000     2.775000000
H     4.676000000    -2.117000000     2.740000000
H     5.568000000    -3.158000000     2.100000000
O     1.109000000     2.656000000     5.477000000
H     1.604000000     1.890000000     5.186000000
H     0.281000000     2.601000000     5.002000000
O     3.876000000    -0.477000000     2.473000000
H     3.028000000    -0.330000000     2.891000000
H     4.497000000     0.013000000     3.012000000
O     2.006000000    -0.312000000    -4.788000000
H     2.095000000    -1.220000000    -4.499000000
H     2.326000000    -0.316000000    -5.691000000
O     2.271000000     3.306000000     1.775000000
H     1.685000000     4.037000000     1.975000000
H     2.083000000     2.657000000     2.453000000
O    -1.678000000     3.619000000     0.043000000
H    -1.136000000     3.384000000     0.796000000
H    -1.205000000     3.268000000    -0.712000000
O     1.534000000    -3.804000000    -1.611000000
H     2.047000000    -3.121000000    -2.043000000
H     1.781000000    -3.741000000    -0.688000000
O     3.438000000    -2.151000000    -2.899000000
H     3.709000000    -2.174000000    -1.981000000
H     3.583000000    -1.245000000    -3.169000000
O    -4.896000000    -4.677000000    -0.719000000
H    -4.776000000    -4.939000000    -1.632000000
H    -4.007000000    -4.545000000    -0.389000000
O     4.977000000     0.935000000    -0.090000000
H     5.435000000     1.403000000     0.608000000
H     4.571000000     0.188000000     0.349000000
O    -2.222000000    -4.291000000     0.170000000
H    -1.570000000    -4.937000000     0.442000000
H    -1.912000000    -3.983000000    -0.682000000
O    -1.079000000    -3.548000000    -2.182000000
H    -0.142000000    -3.577000000    -1.992000000
H    -1.159000000    -3.938000000    -3.053000000
O    -2.616000000    -4.305000000     3.017000000
H    -2.619000000    -4.089000000     2.085000000
H    -3.519000000    -4.160000000     3.299000000
O     4.197000000     5.763000000     1.206000000
H     3.754000000     4.951000000     0.960000000
H     5.045000000     5.716000000     0.766000000
O    -0.065000000     1.154000000    -3.835000000
H    -0.449000000     1.237000000    -4.708000000
H     0.727000000     0.634000000    -3.969000000
O    -2.827000000     4.035000000     6.362000000
H    -2.263000000     3.351000000     6.001000000
H    -2.557000000     4.833000000     5.907000000
O    -5.685000000    -2.281000000    -4.588000000
H    -5.718000000    -2.184000000    -5.539000000
H    -4.871000000    -2.757000000    -4.423000000
O    -5.015000000    -1.899000000    -1.337000000
H    -5.429000000    -2.760000000    -1.277000000
H    -4.966000000    -1.593000000    -0.431000000
O    -1.506000000    -0.518000000     5.424000000
H    -1.318000000    -0.039000000     6.231000000
H    -1.063000000    -0.017000000     4.739000000
O    -1.984000000    -3.236000000     5.933000000
H    -1.475000000    -3.781000000     5.333000000
H    -1.838000000    -2.341000000     5.626000000
O    -3.079000000    -3.764000000    -5.046000000
H    -2.539000000    -2.991000000    -4.883000000
H    -2.641000000    -4.215000000    -5.767000000
O     0.093000000    -3.118000000    -5.475000000
H     0.987000000    -3.310000000    -5.758000000
H    -0.026000000    -2.189000000    -5.673000000
O     0.664000000    -6.189000000    -4.930000000
H    -0.120000000    -6.423000000    -4.433000000
H     0.515000000    -5.284000000    -5.202000000
O     0.070000000     3.313000000    -2.340000000
H     0.081000000     2.568000000    -2.941000000
H     0.978000000     3.401000000    -2.051000000
O    -2.214000000     4.914000000     3.756000000
H    -2.547000000     4.019000000     3.690000000
H    -2.668000000     5.390000000     3.061000000
O     0.331000000     5.179000000     2.777000000
H    -0.465000000     5.034000000     3.287000000
H     0.882000000     5.723000000     3.340000000
O     2.069000000    -3.941000000     1.289000000
H     1.202000000    -4.127000000     1.648000000
H     2.617000000    -4.660000000     1.602000000
O    -6.639000000     0.055000000    -2.743000000
H    -6.564000000    -0.687000000    -3.343000000
H    -5.898000000    -0.044000000    -2.145000000
O     4.545000000     0.526000000    -2.718000000
H     4.734000000     0.570000000    -1.781000000
H     5.348000000     0.181000000    -3.109000000
O     6.356000000     2.638000000     1.795000000
H     5.915000000     2.129000000     2.475000000
H     6.960000000     3.205000000     2.274000000
O    -0.897000000     1.989000000    -6.322000000
H    -0.360000000     2.053000000    -7.111000000
H    -1.195000000     2.885000000    -6.161000000
O     0.841000000    -0.863000000     7.835000000
H     0.398000000    -0.159000000     8.310000000
H     1.355000000    -0.413000000     7.165000000
O    -4.167000000    -1.046000000     4.564000000
H    -4.123000000    -1.998000000     4.472000000
H    -3.455000000    -0.831000000     5.167000000
O     0.489000000     3.029000000     8.099000000
H     0.851000000     2.797000000     7.244000000
H     0.210000000     3.940000000     8.002000000
O     2.583000000     0.142000000     5.988000000
H     2.529000000     0.155000000     5.032000000
H     3.514000000     0.261000000     6.177000000
