158
-3047.92169
C     1.373000000     0.360000000     0.457000000
H     2.383000000     0.639000000     0.744000000
C     0.980000000     0.196000000    -0.865000000
H     1.702000000     0.212000000    -1.678000000
C    -0.327000000    -0.096000000    -1.214000000
H    -0.708000000    -0.185000000    -2.233000000
C    -1.231000000    -0.295000000    -0.157000000
H    -2.255000000    -0.536000000    -0.429000000
C    -0.851000000    -0.229000000     1.181000000
H    -1.547000000    -0.479000000     1.977000000
C     0.459000000     0.154000000     1.518000000
C     0.811000000     0.353000000     2.973000000
O     1.784000000     0.938000000     3.328000000
O     0.195000000    -0.308000000     3.836000000
O    -5.164000000     3.582000000    -2.941000000
H    -5.057000000     4.328000000    -2.352000000
H    -4.270000000     3.327000000    -3.170000000
O    -0.364000000     1.638000000     5.907000000
H    -0.845000000     2.238000000     5.337000000
H    -0.249000000     0.847000000     5.381000000
O     4.452000000    -0.748000000     0.301000000
H     4.453000000    -0.564000000     1.240000000
H     4.694000000    -1.672000000     0.238000000
O    -0.869000000     3.225000000     0.567000000
H    -0.181000000     3.085000000    -0.084000000
H    -1.586000000     2.658000000     0.282000000
O    -3.534000000    -3.204000000    -2.062000000
H    -2.606000000    -3.201000000    -2.299000000
H    -3.542000000    -3.430000000    -1.132000000
O    -3.801000000     1.958000000     0.825000000
H    -4.175000000     1.079000000     0.889000000
H    -3.714000000     2.248000000     1.733000000
O     1.384000000    -1.135000000    -7.292000000
H     0.934000000    -0.734000000    -8.036000000
H     2.007000000    -0.468000000    -7.002000000
O    -4.688000000     0.223000000     2.861000000
H    -4.321000000    -0.023000000     3.710000000
H    -5.586000000     0.489000000     3.057000000
O    -4.142000000    -0.675000000    -3.412000000
H    -4.171000000    -1.367000000    -2.751000000
H    -3.302000000    -0.240000000    -3.266000000
O     2.603000000    -4.365000000    -1.004000000
H     1.856000000    -3.809000000    -0.781000000
H     3.088000000    -3.863000000    -1.660000000
O    -0.642000000     3.069000000     3.299000000
H    -0.390000000     3.991000000     3.249000000
H    -0.536000000     2.743000000     2.406000000
O     2.398000000     5.424000000     0.637000000
H     2.429000000     4.891000000    -0.158000000
H     2.476000000     4.793000000     1.352000000
O    -2.908000000     2.303000000    -6.177000000
H    -3.116000000     1.917000000    -7.028000000
H    -3.751000000     2.366000000    -5.729000000
O     2.758000000     1.917000000     5.492000000
H     2.417000000     2.810000000     5.455000000
H     2.444000000     1.507000000     4.686000000
O     4.316000000    -0.088000000     3.068000000
H     3.385000000     0.132000000     3.081000000
H     4.595000000    -0.005000000     3.980000000
O    -6.017000000     1.077000000    -2.282000000
H    -5.673000000     0.567000000    -3.015000000
H    -6.028000000     1.979000000    -2.603000000
O    -0.225000000    -2.861000000    -5.952000000
H     0.380000000    -2.884000000    -5.211000000
H     0.205000000    -2.297000000    -6.595000000
O     2.698000000     3.518000000     2.648000000
H     2.700000000     4.003000000     3.473000000
H     2.205000000     2.721000000     2.840000000
O     0.509000000     3.283000000     8.126000000
H     0.665000000     4.165000000     7.787000000
H     0.386000000     2.744000000     7.345000000
O    -2.582000000     2.613000000    -2.176000000
H    -2.805000000     1.770000000    -1.782000000
H    -1.948000000     2.399000000    -2.860000000
O     0.282000000    -3.060000000    -0.303000000
H     0.371000000    -2.108000000    -0.287000000
H     0.557000000    -3.342000000     0.569000000
O    -3.037000000     5.439000000    -2.200000000
H    -2.650000000     4.572000000    -2.324000000
H    -3.049000000     5.563000000    -1.251000000
O     3.798000000    -2.522000000    -2.344000000
H     4.538000000    -2.435000000    -2.945000000
H     3.970000000    -1.877000000    -1.658000000
O     4.818000000     2.033000000     1.582000000
H     3.983000000     2.382000000     1.892000000
H     4.925000000     1.209000000     2.057000000
O    -4.219000000    -2.315000000     1.936000000
H    -3.698000000    -2.362000000     2.737000000
H    -4.481000000    -1.396000000     1.875000000
O    -0.963000000    -3.876000000    -2.632000000
H    -0.565000000    -3.498000000    -1.848000000
H    -0.240000000    -3.952000000    -3.255000000
O     1.554000000     2.238000000    -5.199000000
H     1.870000000     1.875000000    -6.026000000
H     2.221000000     1.991000000    -4.558000000
O    -3.397000000    -4.510000000     0.630000000
H    -4.190000000    -5.012000000     0.442000000
H    -3.685000000    -3.825000000     1.233000000
O    -1.724000000    -1.669000000     5.637000000
H    -1.243000000    -1.427000000     6.428000000
H    -1.078000000    -1.606000000     4.934000000
O     7.020000000     1.165000000    -0.645000000
H     7.405000000     0.290000000    -0.691000000
H     6.490000000     1.152000000     0.151000000
O     5.451000000     3.937000000    -1.123000000
H     4.800000000     3.500000000    -0.574000000
H     6.275000000     3.832000000    -0.647000000
O    -0.982000000    -5.598000000    -5.549000000
H    -0.938000000    -4.657000000    -5.716000000
H    -1.094000000    -5.990000000    -6.415000000
O     1.893000000    -3.714000000    -4.021000000
H     2.310000000    -4.501000000    -4.370000000
H     2.588000000    -3.269000000    -3.536000000
O    -5.044000000     4.343000000     0.073000000
H    -4.645000000     3.483000000    -0.059000000
H    -4.336000000     4.887000000     0.417000000
O    -0.972000000     1.781000000    -4.142000000
H    -1.705000000     1.926000000    -4.740000000
H    -0.192000000     1.897000000    -4.685000000
O     4.097000000     1.586000000    -4.193000000
H     4.673000000     2.324000000    -3.994000000
H     4.319000000     0.925000000    -3.538000000
O     2.281000000     4.601000000     5.300000000
H     1.800000000     5.355000000     4.960000000
H     2.456000000     4.822000000     6.215000000
O     1.045000000    -3.762000000     2.303000000
H     0.722000000    -4.600000000     2.633000000
H     1.407000000    -3.325000000     3.074000000
O     5.908000000    -0.208000000    -2.867000000
H     6.058000000    -1.086000000    -2.517000000
H     6.012000000     0.371000000    -2.112000000
O     5.264000000     2.554000000     6.566000000
H     4.362000000     2.366000000     6.308000000
H     5.791000000     1.932000000     6.065000000
O     0.049000000    -1.098000000     7.609000000
H    -0.458000000    -0.497000000     8.155000000
H     0.624000000    -0.529000000     7.097000000
O    -1.958000000    -1.103000000    -7.783000000
H    -2.627000000    -0.559000000    -7.366000000
H    -2.016000000    -1.944000000    -7.330000000
O     1.758000000    -3.025000000     7.000000000
H     1.033000000    -2.445000000     7.232000000
H     2.370000000    -2.465000000     6.523000000
O    -2.713000000     3.432000000     5.105000000
H    -2.180000000     3.374000000     4.312000000
H    -2.507000000     4.292000000     5.471000000
O     1.000000000     5.405000000    -4.990000000
H     1.124000000     4.457000000    -5.019000000
H     1.635000000     5.749000000    -5.617000000
O    -4.320000000    -1.369000000     5.006000000
H    -4.769000000    -2.002000000     5.566000000
H    -3.414000000    -1.376000000     5.316000000
O    -7.155000000     0.363000000     0.014000000
H    -6.746000000     0.724000000    -0.773000000
H    -6.864000000    -0.549000000     0.037000000
O     2.206000000    -0.659000000     5.586000000
H     1.479000000    -0.681000000     4.964000000
H     2.407000000     0.271000000     5.688000000
