158
-3068.37809
C     1.132000000     0.832000000     0.440000000
H     2.026000000     1.412000000     0.655000000
C     1.215000000    -0.216000000    -0.426000000
H     2.183000000    -0.459000000    -0.859000000
C     0.080000000    -0.975000000    -0.722000000
H     0.223000000    -1.732000000    -1.433000000
C    -1.161000000    -0.634000000    -0.237000000
H    -2.009000000    -1.232000000    -0.559000000
C    -1.303000000     0.450000000     0.619000000
H    -2.255000000     0.920000000     0.854000000
C    -0.156000000     1.177000000     1.017000000
C    -0.299000000     2.440000000     1.892000000
O     0.721000000     3.031000000     2.223000000
O    -1.384000000     2.837000000     2.271000000
O     2.127000000    -4.146000000    -3.625000000
H     1.911000000    -3.214000000    -3.647000000
H     3.060000000    -4.181000000    -3.834000000
O    -2.865000000    -1.012000000     2.876000000
H    -2.017000000    -0.964000000     3.318000000
H    -3.266000000    -0.158000000     3.035000000
O     4.179000000    -4.010000000     0.237000000
H     4.264000000    -3.068000000     0.387000000
H     3.542000000    -4.082000000    -0.474000000
O    -1.107000000     5.089000000     3.767000000
H    -1.683000000     5.553000000     3.160000000
H    -0.925000000     4.254000000     3.334000000
O    -2.467000000    -3.795000000    -1.545000000
H    -3.392000000    -3.909000000    -1.762000000
H    -2.047000000    -3.599000000    -2.382000000
O     1.342000000     2.112000000     4.928000000
H     1.154000000     2.342000000     4.018000000
H     2.095000000     1.523000000     4.875000000
O    -0.440000000     4.765000000    -0.225000000
H    -1.384000000     4.628000000    -0.147000000
H    -0.143000000     4.906000000     0.674000000
O     0.020000000     1.133000000    -3.023000000
H    -0.782000000     1.655000000    -3.000000000
H     0.005000000     0.635000000    -2.206000000
O     4.788000000     3.526000000    -1.321000000
H     5.079000000     3.143000000    -0.494000000
H     3.833000000     3.473000000    -1.287000000
O     2.788000000     6.718000000    -0.115000000
H     2.387000000     7.575000000    -0.262000000
H     2.147000000     6.242000000     0.413000000
O     4.425000000    -2.483000000    -4.846000000
H     3.931000000    -1.732000000    -5.174000000
H     4.613000000    -3.005000000    -5.626000000
O     3.490000000    -2.930000000     2.833000000
H     3.888000000    -2.400000000     2.143000000
H     2.707000000    -3.303000000     2.428000000
O    -3.117000000     3.329000000     0.268000000
H    -2.655000000     3.200000000     1.097000000
H    -4.029000000     3.467000000     0.522000000
O    -6.374000000     0.546000000    -0.474000000
H    -5.636000000     0.329000000    -1.044000000
H    -6.560000000    -0.266000000    -0.003000000
O    -1.843000000     0.291000000    -6.390000000
H    -1.386000000    -0.537000000    -6.239000000
H    -1.520000000     0.592000000    -7.239000000
O     4.116000000    -1.238000000     0.771000000
H     4.810000000    -1.133000000     0.120000000
H     3.802000000    -0.348000000     0.932000000
O     1.909000000    -5.002000000    -0.931000000
H     1.110000000    -4.854000000    -0.424000000
H     1.640000000    -4.877000000    -1.842000000
O    -0.139000000    -6.082000000    -5.070000000
H    -0.296000000    -5.161000000    -4.864000000
H     0.813000000    -6.157000000    -5.125000000
O     1.236000000    -1.092000000    -4.013000000
H     0.895000000    -1.395000000    -4.855000000
H     0.916000000    -0.193000000    -3.935000000
O    -1.140000000     2.469000000     6.100000000
H    -0.409000000     2.379000000     5.489000000
H    -0.725000000     2.551000000     6.959000000
O    -3.927000000     0.428000000    -2.750000000
H    -3.856000000     0.911000000    -3.572000000
H    -4.078000000    -0.479000000    -3.017000000
O    -5.562000000    -1.351000000     1.503000000
H    -4.623000000    -1.504000000     1.610000000
H    -5.902000000    -1.313000000     2.397000000
O    -5.825000000     1.325000000     3.977000000
H    -4.886000000     1.514000000     3.987000000
H    -5.876000000     0.376000000     3.866000000
O    -2.104000000     2.519000000    -2.117000000
H    -2.738000000     1.836000000    -2.334000000
H    -2.410000000     2.874000000    -1.282000000
O    -4.704000000    -2.188000000    -3.505000000
H    -5.485000000    -1.676000000    -3.717000000
H    -4.816000000    -2.425000000    -2.584000000
O    -1.250000000    -0.835000000     4.911000000
H    -1.531000000    -0.260000000     5.622000000
H    -0.299000000    -0.728000000     4.878000000
O    -3.011000000     1.594000000     3.991000000
H    -2.232000000     1.755000000     4.524000000
H    -2.838000000     2.053000000     3.170000000
O     5.422000000     3.126000000     3.763000000
H     6.106000000     2.629000000     4.211000000
H     5.382000000     2.741000000     2.887000000
O     0.615000000     7.197000000     4.199000000
H    -0.041000000     6.501000000     4.179000000
H     0.712000000     7.409000000     5.127000000
O     2.040000000     3.991000000    -1.877000000
H     1.162000000     3.910000000    -1.503000000
H     1.982000000     4.744000000    -2.465000000
O    -3.444000000    -3.281000000     1.293000000
H    -2.906000000    -2.654000000     1.777000000
H    -3.097000000    -3.254000000     0.400000000
O    -2.722000000     6.691000000     5.400000000
H    -2.242000000     6.081000000     4.839000000
H    -3.054000000     7.358000000     4.799000000
O     1.587000000    -1.178000000     4.404000000
H     2.361000000    -0.680000000     4.140000000
H     1.492000000    -1.849000000     3.728000000
O     0.193000000    -1.880000000    -6.440000000
H     0.706000000    -1.541000000    -7.173000000
H    -0.301000000    -2.611000000    -6.811000000
O     3.469000000     0.554000000     3.783000000
H     3.767000000     0.965000000     2.972000000
H     3.944000000     1.017000000     4.474000000
O     3.079000000     0.756000000    -3.364000000
H     2.807000000     1.397000000    -2.707000000
H     2.573000000    -0.029000000    -3.157000000
O     3.418000000     3.793000000     1.379000000
H     2.594000000     3.861000000     1.860000000
H     3.404000000     4.534000000     0.773000000
O     3.227000000     4.732000000     4.945000000
H     2.433000000     4.199000000     4.899000000
H     3.885000000     4.222000000     4.473000000
O    -0.711000000    -5.075000000     0.098000000
H    -1.310000000    -4.600000000    -0.477000000
H    -1.237000000    -5.792000000     0.452000000
O    -5.446000000    -3.092000000    -1.094000000
H    -6.127000000    -3.764000000    -1.057000000
H    -5.468000000    -2.681000000    -0.230000000
O    -2.399000000     6.900000000     2.374000000
H    -2.250000000     7.357000000     1.546000000
H    -3.146000000     7.351000000     2.766000000
O     0.939000000    -2.482000000     1.838000000
H     0.325000000    -2.863000000     1.209000000
H     0.896000000    -1.540000000     1.675000000
O     6.470000000    -1.311000000    -0.846000000
H     6.502000000    -1.903000000    -1.598000000
H     7.387000000    -1.182000000    -0.604000000
O     3.558000000     0.033000000    -5.986000000
H     4.302000000     0.602000000    -6.183000000
H     3.259000000     0.319000000    -5.123000000
O    -1.206000000    -3.376000000    -4.125000000
H    -1.923000000    -3.159000000    -4.720000000
H    -0.500000000    -2.779000000    -4.373000000
O     1.346000000     5.818000000     2.036000000
H     1.061000000     4.985000000     2.413000000
H     1.133000000     6.469000000     2.705000000
O    -5.764000000     3.525000000     1.155000000
H    -6.501000000     2.916000000     1.106000000
H    -5.900000000     4.001000000     1.974000000
O     4.453000000     1.390000000     1.277000000
H     5.160000000     1.527000000     0.647000000
H     3.972000000     2.218000000     1.281000000
