158
-3021.28810
C     0.896000000     1.162000000     0.220000000
H     1.704000000     1.887000000     0.269000000
C     1.239000000    -0.066000000    -0.396000000
H     2.282000000    -0.193000000    -0.676000000
C     0.304000000    -1.074000000    -0.565000000
H     0.603000000    -1.979000000    -1.012000000
C    -1.039000000    -0.863000000    -0.151000000
H    -1.850000000    -1.585000000    -0.098000000
C    -1.349000000     0.375000000     0.450000000
H    -2.347000000     0.442000000     0.875000000
C    -0.403000000     1.385000000     0.604000000
C    -0.827000000     2.650000000     1.359000000
O     0.066000000     3.455000000     1.669000000
O    -1.931000000     2.857000000     1.708000000
O     1.995000000    -5.210000000    -1.538000000
H     1.967000000    -4.615000000    -0.788000000
H     2.760000000    -4.928000000    -2.039000000
O     2.753000000    -3.737000000     0.918000000
H     1.995000000    -3.663000000     1.497000000
H     3.276000000    -2.959000000     1.108000000
O    -2.149000000     4.549000000     3.859000000
H    -2.659000000     3.930000000     4.381000000
H    -1.956000000     4.077000000     3.049000000
O    -0.856000000    -5.656000000     1.923000000
H    -1.240000000    -5.333000000     2.738000000
H    -1.236000000    -6.526000000     1.806000000
O     1.144000000     4.736000000     3.733000000
H     0.657000000     4.380000000     2.990000000
H     1.721000000     5.395000000     3.347000000
O    -2.996000000     6.950000000     2.969000000
H    -2.330000000     6.748000000     2.312000000
H    -2.976000000     6.204000000     3.568000000
O     1.245000000     0.257000000    -4.186000000
H     0.896000000     0.746000000    -3.440000000
H     0.757000000    -0.566000000    -4.182000000
O     3.026000000     3.118000000    -1.904000000
H     2.730000000     3.488000000    -1.072000000
H     2.503000000     3.570000000    -2.566000000
O     2.154000000    -7.645000000    -0.251000000
H     2.149000000    -7.363000000     0.663000000
H     2.057000000    -6.834000000    -0.752000000
O     5.771000000     0.628000000     1.982000000
H     5.329000000     0.979000000     2.755000000
H     5.575000000     1.257000000     1.288000000
O     5.123000000    -2.050000000     1.504000000
H     5.601000000    -1.313000000     1.884000000
H     5.665000000    -2.814000000     1.701000000
O    -4.822000000    -2.129000000     0.894000000
H    -4.488000000    -2.754000000     0.251000000
H    -4.174000000    -2.140000000     1.598000000
O    -3.402000000     6.274000000    -0.084000000
H    -2.701000000     6.063000000     0.532000000
H    -3.920000000     5.471000000    -0.142000000
O     0.332000000    -6.346000000    -3.289000000
H     1.059000000    -5.940000000    -2.817000000
H     0.722000000    -7.103000000    -3.725000000
O    -3.172000000     3.018000000    -2.644000000
H    -3.764000000     2.320000000    -2.924000000
H    -2.317000000     2.594000000    -2.574000000
O    -1.611000000    -2.268000000     4.915000000
H    -1.494000000    -2.486000000     3.990000000
H    -2.411000000    -2.727000000     5.170000000
O    -1.668000000    -6.283000000    -1.607000000
H    -1.057000000    -6.410000000    -2.333000000
H    -1.391000000    -6.918000000    -0.947000000
O     4.389000000     4.386000000     3.285000000
H     5.020000000     4.690000000     3.938000000
H     4.188000000     3.487000000     3.547000000
O    -5.888000000     2.619000000     2.984000000
H    -6.138000000     3.346000000     3.554000000
H    -5.481000000     3.038000000     2.225000000
O     3.781000000    -0.823000000    -3.273000000
H     2.942000000    -0.758000000    -3.728000000
H     3.546000000    -0.930000000    -2.351000000
O    -3.930000000     2.797000000     5.886000000
H    -3.656000000     2.329000000     6.675000000
H    -3.614000000     2.254000000     5.164000000
O    -1.026000000    -1.150000000    -6.557000000
H    -1.549000000    -1.763000000    -7.074000000
H    -0.192000000    -1.600000000    -6.423000000
O    -5.913000000     0.551000000     0.217000000
H    -6.229000000     0.675000000    -0.678000000
H    -5.619000000    -0.360000000     0.243000000
O    -2.489000000     1.430000000     3.863000000
H    -3.064000000     0.821000000     3.400000000
H    -2.183000000     2.032000000     3.184000000
O    -0.233000000     3.738000000    -2.162000000
H    -0.405000000     2.797000000    -2.190000000
H     0.465000000     3.834000000    -1.514000000
O    -3.017000000    -3.214000000     2.680000000
H    -3.341000000    -3.706000000     1.925000000
H    -2.568000000    -3.867000000     3.216000000
O     3.591000000    -3.873000000    -3.471000000
H     3.744000000    -4.788000000    -3.708000000
H     4.218000000    -3.380000000    -4.000000000
O    -0.414000000     6.548000000     5.493000000
H    -0.747000000     6.000000000     6.203000000
H    -0.482000000     5.997000000     4.713000000
O    -6.125000000    -2.087000000     3.613000000
H    -6.978000000    -1.812000000     3.276000000
H    -5.492000000    -1.606000000     3.081000000
O    -0.740000000     0.191000000     5.662000000
H    -1.052000000    -0.648000000     5.321000000
H    -1.001000000     0.830000000     4.999000000
O    -1.484000000    -3.507000000    -2.986000000
H    -1.317000000    -4.429000000    -2.790000000
H    -0.680000000    -3.202000000    -3.406000000
O     2.198000000     4.360000000     0.496000000
H     2.766000000     4.727000000     1.173000000
H     1.482000000     3.948000000     0.980000000
O     4.520000000     1.720000000    -3.544000000
H     4.290000000     0.816000000    -3.331000000
H     3.903000000     2.249000000    -3.038000000
O     3.113000000     0.401000000    -6.068000000
H     2.522000000     0.463000000    -5.317000000
H     3.958000000     0.702000000    -5.734000000
O    -5.525000000    -4.123000000    -2.316000000
H    -4.869000000    -3.441000000    -2.171000000
H    -5.065000000    -4.795000000    -2.819000000
O     2.757000000     2.353000000     4.410000000
H     2.394000000     1.876000000     5.155000000
H     2.039000000     2.911000000     4.110000000
O     0.150000000    -2.955000000     1.880000000
H    -0.068000000    -2.131000000     1.443000000
H    -0.296000000    -3.625000000     1.362000000
O     5.864000000    -4.000000000    -1.001000000
H     5.790000000    -4.422000000    -0.145000000
H     4.993000000    -4.090000000    -1.389000000
O    -4.804000000     0.051000000     2.837000000
H    -4.749000000     0.143000000     1.886000000
H    -5.346000000     0.789000000     3.118000000
O    -3.373000000    -4.868000000     0.480000000
H    -3.663000000    -5.639000000     0.967000000
H    -2.841000000    -5.222000000    -0.233000000
O    -2.475000000    -0.334000000    -4.534000000
H    -1.930000000    -0.606000000    -5.273000000
H    -3.334000000    -0.163000000    -4.920000000
O    -2.916000000    -4.512000000    -5.663000000
H    -2.934000000    -3.667000000    -5.213000000
H    -2.790000000    -5.153000000    -4.964000000
O    -1.016000000     1.145000000    -2.394000000
H    -0.664000000     0.517000000    -1.763000000
H    -1.618000000     0.631000000    -2.933000000
O    -1.054000000     6.101000000     1.190000000
H    -0.575000000     5.274000000     1.157000000
H    -0.378000000     6.764000000     1.329000000
O    -4.391000000     3.522000000     0.808000000
H    -4.311000000     2.982000000     0.022000000
H    -3.581000000     3.361000000     1.293000000
O     1.099000000    -2.692000000    -4.077000000
H     0.887000000    -3.015000000    -4.953000000
H     1.795000000    -3.272000000    -3.769000000
O     4.787000000     2.554000000     0.270000000
H     4.546000000     2.381000000    -0.640000000
H     4.880000000     3.506000000     0.317000000
O    -3.677000000    -1.978000000    -2.607000000
H    -2.918000000    -2.554000000    -2.700000000
H    -3.479000000    -1.229000000    -3.169000000
