158
-3012.95744
C     0.960000000     1.091000000    -0.032000000
H     1.774000000     1.779000000    -0.245000000
C     0.960000000    -0.020000000    -0.884000000
H     1.709000000    -0.176000000    -1.656000000
C     0.039000000    -1.012000000    -0.674000000
H     0.126000000    -1.955000000    -1.260000000
C    -0.945000000    -0.890000000     0.249000000
H    -1.528000000    -1.793000000     0.411000000
C    -0.947000000     0.212000000     1.129000000
H    -1.605000000     0.318000000     1.988000000
C    -0.054000000     1.289000000     0.985000000
C     0.029000000     2.565000000     1.813000000
O     0.747000000     3.496000000     1.459000000
O    -0.716000000     2.796000000     2.764000000
O    -0.550000000     1.281000000     4.952000000
H     0.375000000     1.039000000     4.914000000
H    -0.625000000     2.034000000     4.366000000
O     5.651000000    -4.279000000    -0.328000000
H     5.387000000    -4.654000000     0.512000000
H     4.838000000    -4.224000000    -0.831000000
O    -4.380000000     2.102000000     2.224000000
H    -3.899000000     1.621000000     2.897000000
H    -5.227000000     1.658000000     2.172000000
O     0.631000000     5.513000000     3.160000000
H     0.680000000     4.876000000     2.447000000
H     0.678000000     4.986000000     3.957000000
O     1.624000000     5.603000000    -0.028000000
H     2.068000000     5.004000000    -0.629000000
H     1.078000000     5.036000000     0.516000000
O     3.133000000     3.553000000    -1.099000000
H     3.710000000     2.933000000    -0.653000000
H     3.048000000     3.205000000    -1.987000000
O    -0.840000000     7.308000000     1.653000000
H    -0.520000000     6.408000000     1.594000000
H    -0.204000000     7.752000000     2.215000000
O     2.794000000     2.356000000    -3.514000000
H     2.382000000     2.962000000    -4.129000000
H     2.361000000     1.518000000    -3.678000000
O    -2.021000000     2.779000000    -2.458000000
H    -2.689000000     2.119000000    -2.646000000
H    -2.103000000     2.941000000    -1.518000000
O     4.027000000     5.654000000     1.128000000
H     3.096000000     5.807000000     0.965000000
H     4.454000000     5.865000000     0.298000000
O     3.302000000    -3.206000000    -6.253000000
H     3.375000000    -3.469000000    -5.335000000
H     4.168000000    -3.382000000    -6.622000000
O    -2.409000000    -7.364000000     1.115000000
H    -3.328000000    -7.632000000     1.138000000
H    -2.329000000    -6.851000000     0.311000000
O     6.179000000     3.933000000     2.090000000
H     5.644000000     3.435000000     1.472000000
H     6.880000000     4.305000000     1.555000000
O    -0.742000000    -1.386000000    -4.231000000
H    -1.387000000    -0.740000000    -4.521000000
H    -0.036000000    -0.865000000    -3.849000000
O    -3.531000000     5.041000000     6.570000000
H    -2.786000000     5.004000000     5.970000000
H    -3.447000000     4.252000000     7.106000000
O     3.924000000    -0.702000000    -0.387000000
H     2.980000000    -0.542000000    -0.392000000
H     4.005000000    -1.653000000    -0.320000000
O     3.112000000    -6.603000000    -4.321000000
H     2.743000000    -6.808000000    -3.462000000
H     2.932000000    -5.671000000    -4.443000000
O     0.181000000    -5.425000000    -5.957000000
H    -0.022000000    -5.124000000    -5.072000000
H     0.844000000    -4.810000000    -6.272000000
O    -3.137000000     0.767000000     4.482000000
H    -3.255000000    -0.175000000     4.604000000
H    -2.213000000     0.921000000     4.680000000
O     1.765000000    -3.247000000    -3.756000000
H     1.647000000    -2.355000000    -4.084000000
H     0.877000000    -3.598000000    -3.694000000
O     0.129000000     1.172000000    -3.225000000
H    -0.443000000     1.934000000    -3.140000000
H     0.198000000     0.824000000    -2.336000000
O     0.048000000    -1.393000000     6.145000000
H     0.711000000    -0.746000000     5.903000000
H    -0.190000000    -1.812000000     5.318000000
O    -2.781000000     3.665000000     0.645000000
H    -1.882000000     3.599000000     0.967000000
H    -3.256000000     2.984000000     1.122000000
O    -2.848000000    -0.743000000    -1.993000000
H    -2.841000000    -1.692000000    -2.121000000
H    -2.271000000    -0.598000000    -1.244000000
O    -3.211000000    -3.921000000    -1.909000000
H    -3.176000000    -3.874000000    -0.953000000
H    -4.145000000    -3.893000000    -2.116000000
O     2.002000000     0.499000000     5.898000000
H     2.368000000     1.382000000     5.953000000
H     2.635000000    -0.051000000     6.359000000
O     2.506000000     7.178000000    -2.148000000
H     1.905000000     6.908000000    -1.454000000
H     3.288000000     7.479000000    -1.685000000
O     3.708000000    -3.155000000    -1.861000000
H     2.907000000    -3.176000000    -2.385000000
H     4.412000000    -3.294000000    -2.495000000
O     5.182000000     1.337000000     3.878000000
H     5.072000000     1.491000000     4.816000000
H     4.669000000     2.028000000     3.460000000
O     2.301000000     3.181000000     5.363000000
H     2.748000000     3.303000000     4.525000000
H     2.242000000     4.062000000     5.733000000
O    -4.623000000     1.495000000    -2.737000000
H    -5.335000000     0.913000000    -3.002000000
H    -3.978000000     0.915000000    -2.332000000
O    -0.845000000    -5.424000000     2.276000000
H    -1.323000000    -6.213000000     2.020000000
H    -0.791000000    -5.476000000     3.231000000
O    -2.688000000     4.097000000     4.040000000
H    -3.574000000     3.772000000     3.879000000
H    -2.119000000     3.486000000     3.572000000
O    -3.871000000    -2.476000000    -6.322000000
H    -4.324000000    -2.469000000    -7.165000000
H    -3.040000000    -2.032000000    -6.493000000
O     3.042000000     3.208000000     2.652000000
H     2.257000000     3.298000000     2.111000000
H     3.707000000     3.725000000     2.197000000
O     2.853000000    -0.356000000    -5.517000000
H     3.732000000     0.002000000    -5.643000000
H     2.905000000    -1.245000000    -5.867000000
O    -0.867000000     1.589000000     8.083000000
H    -0.197000000     2.271000000     8.040000000
H    -0.929000000     1.256000000     7.188000000
O     2.287000000    -7.168000000    -1.833000000
H     1.490000000    -7.006000000    -1.329000000
H     2.970000000    -7.280000000    -1.172000000
O    -3.240000000    -4.119000000     0.877000000
H    -3.740000000    -4.572000000     1.556000000
H    -2.331000000    -4.172000000     1.173000000
O    -1.999000000     6.695000000     4.267000000
H    -1.643000000     6.919000000     3.407000000
H    -2.099000000     5.744000000     4.245000000
O    -0.641000000    -2.541000000     3.780000000
H    -0.745000000    -3.455000000     3.514000000
H    -0.025000000    -2.175000000     3.145000000
O    -2.217000000    -6.350000000    -1.322000000
H    -2.489000000    -5.552000000    -1.773000000
H    -1.260000000    -6.325000000    -1.347000000
O    -0.902000000    -3.995000000    -3.593000000
H    -1.159000000    -3.119000000    -3.882000000
H    -1.575000000    -4.246000000    -2.961000000
O     0.397000000    -5.281000000    -0.337000000
H     0.088000000    -5.181000000     0.564000000
H     1.312000000    -5.002000000    -0.309000000
O    -5.240000000     2.835000000     5.609000000
H    -4.537000000     2.267000000     5.294000000
H    -4.789000000     3.542000000     6.071000000
O     0.408000000     0.964000000    -6.662000000
H     1.145000000     0.493000000    -6.274000000
H    -0.124000000     1.236000000    -5.914000000
O     4.794000000     2.070000000     0.356000000
H     4.495000000     1.162000000     0.396000000
H     5.727000000     2.007000000     0.155000000
O    -2.821000000     0.371000000    -5.579000000
H    -3.215000000     0.984000000    -6.200000000
H    -3.543000000    -0.201000000    -5.318000000
