158
-3044.38934
C     1.109000000    -0.459000000     0.852000000
H     1.964000000    -0.882000000     1.373000000
C     0.937000000    -0.592000000    -0.549000000
H     1.712000000    -1.059000000    -1.152000000
C    -0.094000000    -0.003000000    -1.229000000
H    -0.227000000    -0.218000000    -2.361000000
C    -1.105000000     0.580000000    -0.476000000
H    -1.947000000     0.970000000    -1.041000000
C    -1.016000000     0.608000000     0.884000000
H    -1.819000000     1.019000000     1.490000000
C     0.090000000     0.086000000     1.596000000
C    -0.036000000     0.108000000     3.076000000
O    -0.601000000     1.011000000     3.652000000
O     0.754000000    -0.649000000     3.671000000
O     2.345000000    -2.948000000    -6.510000000
H     1.985000000    -2.850000000    -7.391000000
H     2.724000000    -2.092000000    -6.309000000
O    -0.989000000     4.653000000     0.987000000
H    -1.855000000     4.721000000     0.586000000
H    -1.137000000     4.166000000     1.798000000
O     1.082000000     2.782000000     4.879000000
H     1.338000000     3.436000000     4.229000000
H     0.463000000     2.216000000     4.417000000
O    -3.813000000    -1.679000000    -3.728000000
H    -3.120000000    -2.209000000    -4.121000000
H    -4.622000000    -2.026000000    -4.104000000
O    -2.602000000     3.147000000    -3.947000000
H    -2.969000000     2.338000000    -3.591000000
H    -2.079000000     3.508000000    -3.231000000
O    -2.713000000    -2.435000000     6.151000000
H    -3.055000000    -3.056000000     5.508000000
H    -2.632000000    -1.611000000     5.670000000
O     5.328000000     0.937000000     0.536000000
H     5.987000000     0.269000000     0.725000000
H     4.750000000     0.926000000     1.299000000
O     3.114000000     0.391000000     6.436000000
H     3.111000000     0.948000000     7.214000000
H     2.244000000     0.510000000     6.054000000
O    -0.730000000     4.107000000    -2.074000000
H    -0.579000000     4.785000000    -1.415000000
H    -0.276000000     3.336000000    -1.733000000
O    -0.375000000     1.215000000    -8.210000000
H    -0.189000000     2.086000000    -8.560000000
H    -1.122000000     1.346000000    -7.626000000
O     2.451000000    -2.284000000     6.978000000
H     2.454000000    -2.534000000     6.054000000
H     2.791000000    -1.390000000     6.986000000
O     0.067000000    -5.185000000     5.972000000
H    -0.650000000    -4.786000000     5.478000000
H     0.829000000    -4.643000000     5.769000000
O     1.291000000    -3.577000000    -3.748000000
H     0.717000000    -3.123000000    -4.364000000
H     2.150000000    -3.176000000    -3.880000000
O    -2.139000000     0.375000000     8.115000000
H    -1.412000000    -0.246000000     8.066000000
H    -2.542000000     0.341000000     7.247000000
O    -4.323000000    -1.571000000     3.538000000
H    -5.014000000    -1.016000000     3.176000000
H    -4.667000000    -2.462000000     3.464000000
O     4.107000000    -3.730000000     3.312000000
H     3.165000000    -3.780000000     3.476000000
H     4.301000000    -4.506000000     2.787000000
O     4.635000000    -3.142000000    -1.258000000
H     4.458000000    -2.353000000    -0.746000000
H     4.539000000    -3.860000000    -0.633000000
O    -3.735000000     4.881000000     0.750000000
H    -4.232000000     4.812000000    -0.065000000
H    -4.076000000     4.174000000     1.298000000
O    -1.690000000    -3.743000000     1.355000000
H    -1.673000000    -4.444000000     0.704000000
H    -2.241000000    -3.065000000     0.963000000
O    -0.823000000    -2.009000000    -4.916000000
H    -1.344000000    -1.972000000    -5.719000000
H    -0.261000000    -1.235000000    -4.960000000
O     4.280000000     0.583000000    -1.872000000
H     3.920000000     1.468000000    -1.930000000
H     4.394000000     0.433000000    -0.933000000
O     0.393000000     0.517000000    -5.182000000
H    -0.471000000     0.928000000    -5.180000000
H     0.847000000     0.916000000    -5.924000000
O    -1.648000000     3.242000000     3.098000000
H    -1.168000000     2.471000000     3.398000000
H    -2.552000000     3.082000000     3.369000000
O     2.965000000     3.501000000    -1.598000000
H     2.333000000     3.183000000    -0.954000000
H     3.238000000     4.356000000    -1.264000000
O     1.576000000    -3.132000000     4.486000000
H     1.262000000    -2.241000000     4.333000000
H     1.266000000    -3.629000000     3.730000000
O    -1.591000000    -5.142000000    -3.848000000
H    -1.940000000    -4.751000000    -4.648000000
H    -0.769000000    -4.676000000    -3.692000000
O    -2.784000000     0.072000000     5.171000000
H    -2.007000000     0.268000000     4.647000000
H    -3.330000000    -0.466000000     4.598000000
O     3.590000000    -1.566000000    -3.576000000
H     3.727000000    -0.682000000    -3.237000000
H     3.770000000    -2.139000000    -2.831000000
O     3.435000000    -0.132000000     3.826000000
H     2.504000000    -0.332000000     3.733000000
H     3.514000000     0.239000000     4.705000000
O    -4.266000000     1.234000000    -2.963000000
H    -4.299000000     0.306000000    -3.194000000
H    -4.664000000     1.278000000    -2.093000000
O     5.239000000    -1.389000000     2.288000000
H     4.831000000    -2.233000000     2.481000000
H     4.867000000    -0.790000000     2.936000000
O    -5.467000000     3.566000000    -0.960000000
H    -5.543000000     3.705000000    -1.904000000
H    -6.336000000     3.777000000    -0.617000000
O     0.638000000     6.118000000    -3.256000000
H     0.273000000     5.238000000    -3.348000000
H     0.018000000     6.684000000    -3.716000000
O    -4.782000000     0.420000000     1.500000000
H    -5.168000000     0.653000000     0.656000000
H    -3.954000000    -0.004000000     1.276000000
O    -5.092000000     4.217000000    -3.701000000
H    -4.899000000     5.126000000    -3.927000000
H    -4.238000000     3.786000000    -3.687000000
O    -1.361000000     4.707000000     6.400000000
H    -0.958000000     5.566000000     6.527000000
H    -0.918000000     4.346000000     5.633000000
O     3.623000000    -0.429000000    -6.583000000
H     3.531000000    -0.354000000    -5.633000000
H     3.935000000     0.432000000    -6.863000000
O     0.080000000    -1.281000000     8.478000000
H     0.395000000    -0.490000000     8.041000000
H     0.328000000    -1.994000000     7.888000000
O     1.003000000     3.126000000     0.223000000
H     0.460000000     3.779000000     0.664000000
H     0.493000000     2.318000000     0.272000000
O     4.331000000     2.876000000    -3.974000000
H     5.184000000     3.020000000    -3.563000000
H     3.698000000     3.025000000    -3.271000000
O    -2.476000000     1.080000000    -6.514000000
H    -3.137000000     0.512000000    -6.908000000
H    -2.962000000     1.611000000    -5.883000000
O    -2.717000000    -2.201000000    -1.153000000
H    -3.055000000    -1.914000000    -2.001000000
H    -1.796000000    -1.938000000    -1.162000000
O    -4.379000000     2.768000000     3.003000000
H    -4.684000000     2.005000000     2.513000000
H    -5.062000000     2.921000000     3.657000000
O     0.513000000     0.356000000     6.276000000
H     0.455000000     0.016000000     5.382000000
H     0.355000000     1.296000000     6.186000000
O     1.098000000    -5.159000000    -0.226000000
H     0.343000000    -4.696000000    -0.588000000
H     1.416000000    -5.700000000    -0.949000000
O     0.744000000    -4.412000000     2.339000000
H    -0.147000000    -4.133000000     2.128000000
H     1.087000000    -4.759000000     1.515000000
O     1.487000000     4.006000000     7.486000000
H     1.011000000     3.682000000     6.722000000
H     1.803000000     4.870000000     7.223000000
O    -5.815000000    -0.635000000    -1.217000000
H    -6.522000000    -0.195000000    -1.689000000
H    -6.259000000    -1.130000000    -0.528000000
