158
-3047.63798
C     1.034000000     0.748000000     0.839000000
H     1.894000000     1.227000000     1.299000000
C     1.205000000    -0.452000000     0.177000000
H     2.139000000    -0.990000000     0.316000000
C     0.148000000    -1.143000000    -0.414000000
H     0.280000000    -2.198000000    -0.766000000
C    -1.074000000    -0.542000000    -0.505000000
H    -1.897000000    -1.050000000    -1.003000000
C    -1.221000000     0.795000000    -0.083000000
H    -2.186000000     1.269000000    -0.240000000
C    -0.179000000     1.474000000     0.609000000
C    -0.479000000     2.807000000     1.267000000
O     0.423000000     3.536000000     1.521000000
O    -1.623000000     3.191000000     1.409000000
O     2.559000000    -5.434000000    -4.730000000
H     3.276000000    -5.013000000    -5.205000000
H     2.666000000    -6.367000000    -4.913000000
O    -2.402000000     5.110000000     3.036000000
H    -3.083000000     5.587000000     2.561000000
H    -2.078000000     4.466000000     2.407000000
O     0.023000000    -5.701000000    -3.612000000
H    -0.254000000    -6.130000000    -4.421000000
H     0.938000000    -5.468000000    -3.765000000
O     2.132000000     3.358000000     3.644000000
H     1.346000000     3.407000000     3.100000000
H     2.650000000     2.654000000     3.253000000
O     0.879000000    -6.985000000     1.972000000
H    -0.071000000    -7.029000000     1.869000000
H     1.223000000    -7.104000000     1.087000000
O     0.177000000     4.878000000    -1.343000000
H     0.105000000     4.029000000    -1.780000000
H     0.210000000     4.666000000    -0.411000000
O    -0.125000000    -0.287000000    -3.780000000
H    -0.356000000     0.584000000    -3.460000000
H    -0.029000000    -0.816000000    -2.988000000
O    -1.138000000     7.555000000     0.351000000
H    -0.441000000     6.900000000     0.332000000
H    -0.745000000     8.334000000    -0.042000000
O     2.339000000     2.789000000    -2.831000000
H     2.446000000     3.002000000    -1.904000000
H     1.405000000     2.915000000    -3.000000000
O     3.738000000     5.607000000     0.668000000
H     3.957000000     6.405000000     0.186000000
H     2.882000000     5.789000000     1.056000000
O     6.823000000    -1.571000000     2.163000000
H     6.505000000    -1.167000000     1.356000000
H     7.678000000    -1.932000000     1.931000000
O     3.869000000    -2.586000000     2.658000000
H     4.001000000    -1.646000000     2.788000000
H     2.922000000    -2.681000000     2.551000000
O    -3.557000000     3.839000000    -0.493000000
H    -2.947000000     3.621000000     0.212000000
H    -3.487000000     4.789000000    -0.585000000
O     5.931000000     2.505000000     4.522000000
H     6.349000000     3.204000000     4.020000000
H     5.207000000     2.212000000     3.969000000
O    -4.080000000    -0.665000000    -2.315000000
H    -3.935000000    -1.596000000    -2.486000000
H    -4.126000000    -0.601000000    -1.361000000
O     3.766000000    -5.009000000    -2.126000000
H     4.699000000    -4.874000000    -2.293000000
H     3.381000000    -5.119000000    -2.995000000
O     1.118000000    -2.891000000     4.708000000
H     0.778000000    -3.115000000     3.841000000
H     0.389000000    -2.453000000     5.146000000
O     3.098000000    -3.794000000     0.137000000
H     3.597000000    -2.979000000     0.090000000
H     3.145000000    -4.155000000    -0.748000000
O     2.269000000    -1.027000000    -5.162000000
H     2.130000000    -1.575000000    -5.935000000
H     1.387000000    -0.806000000    -4.864000000
O    -2.143000000    -1.274000000    -6.213000000
H    -1.440000000    -1.234000000    -6.862000000
H    -1.816000000    -0.760000000    -5.474000000
O    -4.441000000    -1.803000000     0.483000000
H    -4.054000000    -2.348000000     1.168000000
H    -4.588000000    -0.957000000     0.906000000
O     4.778000000    -0.778000000    -0.447000000
H     3.977000000    -0.456000000    -0.859000000
H     5.414000000    -0.824000000    -1.161000000
O     2.100000000    -7.388000000    -0.494000000
H     2.669000000    -8.122000000    -0.262000000
H     2.646000000    -6.826000000    -1.044000000
O    -3.421000000     3.000000000    -3.134000000
H    -4.025000000     2.272000000    -3.283000000
H    -3.609000000     3.288000000    -2.241000000
O    -1.645000000    -4.874000000    -1.527000000
H    -1.008000000    -5.082000000    -2.211000000
H    -2.337000000    -4.393000000    -1.982000000
O    -0.145000000     2.398000000     5.982000000
H    -0.102000000     1.577000000     5.493000000
H     0.666000000     2.418000000     6.490000000
O    -3.926000000     1.967000000     2.727000000
H    -3.577000000     1.864000000     3.612000000
H    -3.262000000     2.479000000     2.266000000
O    -7.672000000     1.207000000    -0.487000000
H    -7.908000000     0.622000000    -1.207000000
H    -6.735000000     1.366000000    -0.605000000
O     0.875000000    -3.473000000     1.925000000
H     1.523000000    -3.627000000     1.238000000
H     0.146000000    -4.052000000     1.701000000
O    -5.563000000     1.290000000    -3.396000000
H    -5.219000000     0.431000000    -3.151000000
H    -5.876000000     1.175000000    -4.294000000
O    -0.825000000     7.374000000     3.893000000
H    -1.387000000     6.695000000     3.519000000
H    -0.740000000     7.133000000     4.816000000
O    -0.503000000     2.511000000    -3.413000000
H    -1.452000000     2.620000000    -3.355000000
H    -0.244000000     3.059000000    -4.154000000
O    -3.071000000    -3.169000000     2.470000000
H    -2.460000000    -2.464000000     2.683000000
H    -2.521000000    -3.859000000     2.100000000
O    -3.914000000     5.431000000     5.547000000
H    -3.272000000     5.336000000     4.843000000
H    -3.927000000     6.370000000     5.733000000
O     0.670000000     0.473000000     4.331000000
H     1.561000000     0.453000000     3.984000000
H     0.180000000    -0.129000000     3.770000000
O     3.294000000     0.348000000     3.634000000
H     3.974000000     0.527000000     2.985000000
H     3.627000000     0.736000000     4.444000000
O     3.094000000     0.216000000    -2.186000000
H     2.870000000    -0.189000000    -3.023000000
H     2.844000000     1.134000000    -2.289000000
O     3.383000000     3.199000000    -0.338000000
H     2.903000000     2.670000000     0.299000000
H     3.421000000     4.071000000     0.056000000
O    -0.458000000    -8.320000000    -1.563000000
H     0.295000000    -8.550000000    -1.017000000
H    -0.212000000    -7.492000000    -1.975000000
O    -1.331000000    -4.792000000     1.079000000
H    -1.333000000    -4.691000000     0.128000000
H    -1.657000000    -5.680000000     1.227000000
O    -4.211000000    -3.892000000    -3.113000000
H    -4.911000000    -3.536000000    -3.660000000
H    -4.627000000    -4.600000000    -2.622000000
O    -6.759000000    -2.301000000    -1.231000000
H    -7.358000000    -3.030000000    -1.072000000
H    -6.077000000    -2.402000000    -0.567000000
O     3.564000000    -5.921000000     1.986000000
H     3.348000000    -5.209000000     1.384000000
H     2.720000000    -6.323000000     2.194000000
O    -0.865000000    -1.458000000     2.687000000
H    -0.272000000    -2.118000000     2.327000000
H    -0.843000000    -0.743000000     2.050000000
O     2.970000000     5.706000000     4.536000000
H     2.704000000     4.860000000     4.176000000
H     3.926000000     5.696000000     4.489000000
O     1.031000000     6.165000000     1.548000000
H     1.021000000     5.214000000     1.658000000
H     0.626000000     6.503000000     2.346000000
O    -5.033000000     1.576000000     0.184000000
H    -4.888000000     1.600000000     1.130000000
H    -4.413000000     2.214000000    -0.170000000
O     5.130000000     0.854000000     1.689000000
H     6.036000000     1.139000000     1.573000000
H     4.949000000     0.312000000     0.921000000
