158
-3024.94280
C     1.383000000     0.524000000     0.261000000
H     2.416000000     0.747000000     0.514000000
C     1.043000000    -0.718000000    -0.316000000
H     1.863000000    -1.391000000    -0.552000000
C    -0.232000000    -1.091000000    -0.521000000
H    -0.439000000    -2.064000000    -0.971000000
C    -1.221000000    -0.243000000    -0.232000000
H    -2.239000000    -0.535000000    -0.476000000
C    -0.953000000     0.953000000     0.416000000
H    -1.760000000     1.655000000     0.610000000
C     0.320000000     1.401000000     0.577000000
C     0.601000000     2.770000000     1.258000000
O     1.716000000     3.221000000     1.347000000
O    -0.247000000     3.423000000     1.825000000
O     3.134000000    -2.808000000    -2.541000000
H     3.319000000    -3.619000000    -3.015000000
H     3.996000000    -2.432000000    -2.365000000
O     4.118000000     2.368000000     5.858000000
H     3.872000000     1.620000000     6.401000000
H     3.849000000     2.121000000     4.973000000
O     0.576000000     4.549000000     5.504000000
H    -0.232000000     4.856000000     5.093000000
H     0.814000000     5.249000000     6.113000000
O     1.978000000     5.308000000     2.952000000
H     1.608000000     4.676000000     2.335000000
H     1.582000000     5.082000000     3.793000000
O    -2.927000000    -5.580000000    -3.291000000
H    -2.633000000    -6.459000000    -3.529000000
H    -3.882000000    -5.626000000    -3.336000000
O    -1.346000000     5.023000000     3.600000000
H    -2.144000000     4.506000000     3.490000000
H    -0.677000000     4.537000000     3.120000000
O    -2.132000000     0.431000000    -5.317000000
H    -2.031000000     1.190000000    -5.892000000
H    -1.901000000     0.758000000    -4.448000000
O     4.038000000     0.905000000    -2.066000000
H     3.242000000     0.624000000    -2.517000000
H     3.997000000     1.861000000    -2.082000000
O    -5.892000000    -1.085000000     1.428000000
H    -5.135000000    -1.645000000     1.258000000
H    -6.561000000    -1.394000000     0.818000000
O     2.661000000     7.608000000     1.199000000
H     2.535000000     6.935000000     1.868000000
H     2.932000000     8.384000000     1.689000000
O     5.224000000    -2.404000000    -0.263000000
H     6.021000000    -2.925000000    -0.354000000
H     5.527000000    -1.556000000     0.062000000
O    -0.003000000    -6.701000000     2.190000000
H     0.260000000    -7.545000000     2.559000000
H    -0.435000000    -6.925000000     1.365000000
O     4.603000000     0.269000000     3.333000000
H     4.545000000     0.839000000     2.566000000
H     3.693000000     0.063000000     3.547000000
O    -0.196000000    -1.595000000     2.507000000
H    -0.081000000    -2.545000000     2.477000000
H    -0.045000000    -1.307000000     1.607000000
O    -0.491000000     7.487000000     3.224000000
H    -0.746000000     6.573000000     3.352000000
H    -1.229000000     7.992000000     3.563000000
O     2.866000000    -3.911000000     0.539000000
H     3.532000000    -3.291000000     0.242000000
H     3.030000000    -4.703000000     0.026000000
O    -3.064000000     3.959000000    -0.773000000
H    -3.370000000     3.667000000     0.086000000
H    -2.458000000     4.674000000    -0.580000000
O     1.086000000     6.562000000    -2.934000000
H     0.531000000     5.856000000    -3.266000000
H     1.388000000     6.248000000    -2.082000000
O     4.368000000     2.410000000     1.602000000
H     4.772000000     3.164000000     2.031000000
H     3.489000000     2.709000000     1.370000000
O    -0.824000000    -2.053000000    -5.961000000
H    -0.568000000    -2.645000000    -5.254000000
H    -1.372000000    -1.394000000    -5.534000000
O    -1.609000000     2.072000000     3.751000000
H    -1.513000000     1.159000000     3.478000000
H    -1.078000000     2.565000000     3.126000000
O    -2.393000000    -0.921000000     3.712000000
H    -2.235000000    -1.257000000     4.594000000
H    -1.559000000    -1.042000000     3.257000000
O     4.146000000     3.568000000    -1.860000000
H     3.329000000     4.056000000    -1.760000000
H     4.781000000     4.051000000    -1.332000000
O    -3.870000000    -3.540000000     4.212000000
H    -3.406000000    -3.275000000     3.418000000
H    -3.415000000    -4.331000000     4.503000000
O     0.961000000     1.650000000     5.831000000
H     0.482000000     2.432000000     5.557000000
H     1.001000000     1.716000000     6.786000000
O    -2.801000000     1.344000000     6.032000000
H    -2.497000000     0.450000000     6.191000000
H    -2.315000000     1.628000000     5.257000000
O    -5.975000000     2.405000000    -0.238000000
H    -5.313000000     2.838000000    -0.777000000
H    -5.865000000     1.473000000    -0.425000000
O     0.646000000    -5.196000000    -5.796000000
H     0.366000000    -4.869000000    -4.942000000
H     0.808000000    -6.129000000    -5.654000000
O     4.807000000     4.899000000     2.856000000
H     5.382000000     5.635000000     2.648000000
H     3.923000000     5.261000000     2.802000000
O     0.359000000    -4.017000000     1.463000000
H     0.287000000    -4.947000000     1.681000000
H     1.257000000    -3.914000000     1.149000000
O    -0.952000000    -3.778000000    -3.878000000
H    -1.692000000    -4.334000000    -3.634000000
H    -0.294000000    -3.944000000    -3.203000000
O     1.932000000     5.453000000    -0.472000000
H     2.130000000     4.669000000     0.040000000
H     2.097000000     6.180000000     0.129000000
O    -5.713000000    -4.661000000     1.207000000
H    -5.902000000    -5.278000000     0.501000000
H    -4.774000000    -4.488000000     1.129000000
O     2.006000000    -0.149000000     4.181000000
H     1.494000000     0.462000000     4.710000000
H     1.361000000    -0.766000000     3.836000000
O     0.536000000    -4.108000000    -1.664000000
H    -0.011000000    -3.941000000    -0.897000000
H     1.267000000    -3.497000000    -1.574000000
O     3.209000000    -3.781000000     3.431000000
H     3.257000000    -3.465000000     2.528000000
H     2.402000000    -4.295000000     3.462000000
O    -5.245000000     0.113000000    -1.945000000
H    -4.697000000    -0.545000000    -2.374000000
H    -5.930000000    -0.394000000    -1.509000000
O    -1.247000000    -7.271000000    -0.742000000
H    -0.397000000    -6.953000000    -1.045000000
H    -1.146000000    -8.222000000    -0.699000000
O    -2.230000000    -4.644000000    -0.570000000
H    -2.261000000    -5.048000000    -1.438000000
H    -1.922000000    -5.343000000     0.007000000
O    -4.183000000    -2.005000000    -3.572000000
H    -3.469000000    -2.570000000    -3.866000000
H    -4.941000000    -2.588000000    -3.513000000
O     1.241000000    -6.751000000    -1.268000000
H     0.902000000    -5.862000000    -1.368000000
H     1.959000000    -6.807000000    -1.897000000
O    -0.607000000     4.186000000    -3.431000000
H    -1.126000000     3.498000000    -3.014000000
H     0.080000000     3.716000000    -3.902000000
O    -1.189000000     1.427000000    -2.816000000
H    -1.299000000     1.160000000    -1.903000000
H    -0.290000000     1.179000000    -3.031000000
O    -1.409000000     5.833000000     0.002000000
H    -0.762000000     6.525000000     0.138000000
H    -0.983000000     5.039000000     0.324000000
O    -3.620000000     3.307000000     1.785000000
H    -3.250000000     2.505000000     2.154000000
H    -4.458000000     3.413000000     2.236000000
O     1.946000000     0.051000000    -3.568000000
H     1.769000000    -0.879000000    -3.430000000
H     2.394000000     0.086000000    -4.413000000
O     5.882000000     0.406000000     0.109000000
H     5.423000000     0.447000000    -0.730000000
H     5.361000000     0.956000000     0.695000000
O    -3.593000000    -2.392000000     0.644000000
H    -3.028000000    -1.664000000     0.903000000
H    -3.130000000    -2.807000000    -0.084000000
