158
-3036.37741
C     0.978000000     0.696000000     0.943000000
H     1.739000000     1.248000000     1.489000000
C     1.273000000    -0.193000000    -0.132000000
H     2.325000000    -0.420000000    -0.283000000
C     0.298000000    -0.819000000    -0.944000000
H     0.583000000    -1.547000000    -1.760000000
C    -1.018000000    -0.537000000    -0.600000000
H    -1.839000000    -0.957000000    -1.176000000
C    -1.343000000     0.277000000     0.449000000
H    -2.383000000     0.504000000     0.668000000
C    -0.378000000     0.891000000     1.256000000
C    -0.867000000     1.860000000     2.343000000
O    -0.017000000     2.251000000     3.129000000
O    -2.055000000     2.265000000     2.378000000
O     3.454000000    -2.949000000    -4.136000000
H     3.769000000    -2.324000000    -3.483000000
H     4.164000000    -3.585000000    -4.222000000
O    -1.547000000     3.786000000     5.442000000
H    -0.859000000     3.774000000     6.108000000
H    -1.295000000     3.098000000     4.826000000
O     0.927000000     4.763000000     2.497000000
H     0.432000000     3.974000000     2.717000000
H     1.336000000     5.027000000     3.321000000
O    -3.657000000     4.551000000     2.645000000
H    -3.219000000     5.241000000     2.146000000
H    -3.104000000     3.780000000     2.521000000
O     1.864000000     0.403000000    -4.748000000
H     1.396000000     0.824000000    -5.469000000
H     1.451000000    -0.457000000    -4.666000000
O     3.374000000     3.602000000    -0.792000000
H     2.470000000     3.900000000    -0.689000000
H     3.811000000     4.318000000    -1.253000000
O    -5.303000000     0.329000000    -2.846000000
H    -4.948000000    -0.300000000    -2.218000000
H    -5.739000000    -0.211000000    -3.506000000
O     3.922000000    -1.123000000     1.660000000
H     3.042000000    -1.262000000     2.009000000
H     3.950000000    -0.191000000     1.444000000
O     4.668000000    -3.240000000    -0.217000000
H     4.131000000    -2.970000000     0.528000000
H     4.825000000    -4.173000000    -0.073000000
O     3.981000000     1.206000000     4.017000000
H     4.076000000     1.941000000     3.410000000
H     3.097000000     1.302000000     4.371000000
O    -4.146000000    -1.386000000     2.533000000
H    -4.255000000    -2.184000000     3.050000000
H    -5.036000000    -1.057000000     2.408000000
O     2.651000000    -5.486000000    -2.045000000
H     3.257000000    -5.753000000    -1.354000000
H     3.078000000    -4.737000000    -2.461000000
O     5.599000000    -1.658000000     3.532000000
H     5.248000000    -2.330000000     4.117000000
H     4.908000000    -1.522000000     2.883000000
O    -2.134000000     2.784000000    -5.484000000
H    -1.508000000     2.268000000    -4.975000000
H    -2.451000000     3.448000000    -4.872000000
O    -1.249000000     1.465000000     7.567000000
H    -2.138000000     1.806000000     7.671000000
H    -0.709000000     2.243000000     7.432000000
O     4.438000000     3.651000000     2.528000000
H     5.157000000     4.009000000     3.050000000
H     3.936000000     4.419000000     2.255000000
O     7.214000000     1.541000000     0.342000000
H     6.259000000     1.572000000     0.290000000
H     7.413000000     0.630000000     0.560000000
O     3.642000000     1.582000000    -2.751000000
H     2.978000000     1.254000000    -3.358000000
H     3.214000000     2.307000000    -2.297000000
O    -5.052000000     1.662000000     0.185000000
H    -4.146000000     1.973000000     0.194000000
H    -5.168000000     1.288000000    -0.688000000
O    -4.144000000     4.975000000     5.650000000
H    -3.252000000     4.656000000     5.514000000
H    -4.546000000     4.940000000     4.782000000
O    -1.794000000    -0.964000000    -6.649000000
H    -2.088000000    -0.587000000    -5.819000000
H    -0.909000000    -0.619000000    -6.768000000
O    -6.757000000     2.957000000     1.862000000
H    -6.031000000     2.720000000     1.286000000
H    -6.965000000     3.862000000     1.627000000
O    -3.466000000     0.725000000     3.977000000
H    -3.721000000    -0.026000000     3.441000000
H    -3.127000000     1.364000000     3.350000000
O    -6.668000000    -0.392000000     1.930000000
H    -7.232000000    -0.653000000     1.202000000
H    -6.190000000     0.370000000     1.602000000
O     0.549000000    -0.301000000     6.162000000
H    -0.101000000     0.236000000     6.614000000
H     1.101000000    -0.649000000     6.862000000
O    -4.410000000     1.266000000     6.414000000
H    -4.132000000     2.116000000     6.757000000
H    -4.058000000     1.241000000     5.524000000
O     0.380000000     3.809000000     7.266000000
H    -0.087000000     3.930000000     8.093000000
H     1.074000000     4.468000000     7.284000000
O    -0.767000000     6.395000000     5.027000000
H    -1.238000000     5.569000000     4.917000000
H     0.116000000     6.212000000     4.705000000
O     2.538000000    -3.930000000    -6.433000000
H     3.042000000    -3.257000000    -5.976000000
H     2.750000000    -4.742000000    -5.973000000
O     0.010000000    -5.954000000    -1.699000000
H     0.935000000    -5.716000000    -1.764000000
H     0.006000000    -6.771000000    -1.201000000
O     2.209000000    -2.065000000     4.805000000
H     1.538000000    -1.445000000     5.090000000
H     2.005000000    -2.234000000     3.886000000
O    -2.443000000    -3.642000000    -2.673000000
H    -2.521000000    -4.565000000    -2.915000000
H    -1.592000000    -3.375000000    -3.019000000
O     0.920000000     4.963000000    -0.143000000
H     0.846000000     5.899000000    -0.326000000
H     0.928000000     4.905000000     0.812000000
O    -4.124000000    -4.243000000     1.028000000
H    -4.149000000    -3.962000000     1.943000000
H    -3.200000000    -4.427000000     0.859000000
O    -6.962000000    -2.334000000    -1.231000000
H    -7.522000000    -1.560000000    -1.171000000
H    -6.093000000    -2.022000000    -0.980000000
O     1.609000000     2.109000000     5.029000000
H     1.290000000     1.431000000     5.625000000
H     0.968000000     2.124000000     4.318000000
O     1.236000000    -5.310000000     1.116000000
H     2.053000000    -5.053000000     0.689000000
H     1.175000000    -6.254000000     0.969000000
O     1.526000000    -2.195000000     1.872000000
H     0.984000000    -1.639000000     1.313000000
H     1.154000000    -3.071000000     1.773000000
O     1.826000000     5.037000000     5.226000000
H     2.720000000     5.346000000     5.368000000
H     1.863000000     4.099000000     5.416000000
O    -1.511000000    -4.255000000    -0.061000000
H    -0.720000000    -4.740000000    -0.296000000
H    -1.953000000    -4.098000000    -0.895000000
O    -2.784000000    -1.073000000    -3.980000000
H    -3.067000000    -1.934000000    -3.672000000
H    -3.399000000    -0.461000000    -3.576000000
O     4.721000000    -1.363000000    -2.361000000
H     4.652000000    -1.697000000    -1.467000000
H     4.632000000    -0.414000000    -2.269000000
O    -0.155000000     1.917000000    -3.292000000
H    -0.389000000     1.395000000    -2.525000000
H     0.392000000     1.335000000    -3.820000000
O    -1.257000000     6.503000000     1.949000000
H    -0.971000000     7.352000000     1.612000000
H    -0.459000000     6.099000000     2.288000000
O    -2.780000000     3.575000000    -0.184000000
H    -2.096000000     3.088000000    -0.642000000
H    -2.440000000     3.688000000     0.704000000
O     0.850000000    -2.330000000    -4.578000000
H     1.692000000    -2.509000000    -4.159000000
H     0.759000000    -3.018000000    -5.237000000
O     4.097000000     1.369000000     0.763000000
H     3.641000000     1.952000000     0.156000000
H     4.348000000     1.934000000     1.494000000
O    -4.393000000    -1.712000000    -0.696000000
H    -4.010000000    -1.737000000     0.180000000
H    -4.227000000    -2.584000000    -1.055000000
