158
-3023.87686
C     1.260000000     0.575000000    -0.528000000
H     2.242000000     0.822000000    -0.923000000
C     0.845000000    -0.703000000    -0.828000000
H     1.355000000    -1.319000000    -1.564000000
C    -0.356000000    -1.122000000    -0.222000000
H    -0.596000000    -2.175000000    -0.341000000
C    -1.088000000    -0.305000000     0.585000000
H    -1.914000000    -0.724000000     1.155000000
C    -0.747000000     0.984000000     0.777000000
H    -1.291000000     1.645000000     1.447000000
C     0.478000000     1.444000000     0.272000000
C     0.959000000     2.867000000     0.568000000
O     2.115000000     3.076000000     0.994000000
O     0.150000000     3.744000000     0.510000000
O    -5.902000000    -4.315000000    -0.420000000
H    -6.232000000    -4.362000000    -1.317000000
H    -5.339000000    -3.540000000    -0.413000000
O     1.373000000     7.167000000     3.890000000
H     1.384000000     7.547000000     4.768000000
H     0.569000000     6.648000000     3.863000000
O     2.642000000     4.601000000     2.955000000
H     2.374000000     4.003000000     2.257000000
H     1.912000000     5.215000000     3.038000000
O    -0.228000000    -4.723000000     0.383000000
H     0.687000000    -4.442000000     0.386000000
H    -0.204000000    -5.615000000     0.036000000
O    -0.256000000     5.149000000     2.675000000
H    -1.202000000     5.287000000     2.727000000
H    -0.137000000     4.591000000     1.907000000
O    -1.788000000     0.930000000    -5.127000000
H    -1.080000000     1.570000000    -5.206000000
H    -1.895000000     0.806000000    -4.184000000
O     4.035000000    -1.167000000    -2.235000000
H     4.048000000    -1.556000000    -3.109000000
H     4.056000000    -0.223000000    -2.392000000
O    -4.176000000    -4.418000000     3.427000000
H    -3.377000000    -3.901000000     3.526000000
H    -4.115000000    -5.086000000     4.110000000
O     2.312000000     7.168000000     1.239000000
H     2.303000000     6.989000000     2.179000000
H     1.701000000     7.896000000     1.128000000
O     4.636000000    -2.134000000     2.306000000
H     5.152000000    -1.373000000     2.570000000
H     3.734000000    -1.816000000     2.282000000
O     1.310000000    -5.772000000    -5.187000000
H     0.926000000    -5.446000000    -4.374000000
H     0.562000000    -6.082000000    -5.698000000
O     1.964000000    -1.189000000     1.937000000
H     1.932000000    -0.284000000     1.624000000
H     1.205000000    -1.609000000     1.533000000
O    -1.492000000     7.576000000     1.201000000
H    -1.183000000     7.018000000     0.487000000
H    -1.017000000     7.264000000     1.971000000
O    -2.456000000     3.528000000    -0.258000000
H    -2.543000000     3.879000000     0.628000000
H    -1.551000000     3.221000000    -0.306000000
O    -2.952000000    -2.589000000    -3.097000000
H    -2.952000000    -3.546000000    -3.074000000
H    -2.621000000    -2.370000000    -3.968000000
O     2.275000000     4.266000000    -2.608000000
H     1.603000000     3.591000000    -2.512000000
H     2.593000000     4.415000000    -1.718000000
O     5.284000000     4.261000000     3.240000000
H     5.657000000     3.812000000     2.482000000
H     4.338000000     4.175000000     3.128000000
O     0.935000000    -2.417000000    -6.200000000
H     1.688000000    -2.833000000    -6.620000000
H     1.309000000    -1.928000000    -5.467000000
O    -3.449000000     0.293000000     3.976000000
H    -4.247000000     0.145000000     4.484000000
H    -3.102000000    -0.584000000     3.816000000
O     0.914000000    -0.360000000    -4.177000000
H     0.171000000    -0.333000000    -3.574000000
H     1.273000000     0.527000000    -4.155000000
O     0.393000000    -1.552000000     4.691000000
H     1.026000000    -2.208000000     4.982000000
H     0.901000000    -0.957000000     4.139000000
O     3.967000000     7.046000000    -2.164000000
H     3.528000000     6.298000000    -1.757000000
H     3.276000000     7.699000000    -2.273000000
O    -5.689000000    -0.342000000     0.825000000
H    -5.335000000    -0.899000000     0.132000000
H    -6.482000000     0.036000000     0.446000000
O     7.184000000     2.224000000     1.323000000
H     7.533000000     1.523000000     0.773000000
H     6.300000000     2.374000000     0.988000000
O     4.780000000     1.591000000    -1.955000000
H     4.298000000     2.235000000    -2.474000000
H     5.635000000     1.533000000    -2.380000000
O    -3.463000000     3.059000000    -2.692000000
H    -3.440000000     3.182000000    -1.743000000
H    -2.754000000     3.610000000    -3.022000000
O    -2.317000000    -2.443000000     4.285000000
H    -2.803000000    -2.561000000     5.101000000
H    -1.537000000    -1.950000000     4.540000000
O     0.257000000    -4.778000000    -2.542000000
H    -0.444000000    -4.459000000    -1.974000000
H     1.051000000    -4.692000000    -2.014000000
O     4.585000000     2.078000000     0.762000000
H     3.759000000     2.486000000     1.023000000
H     4.472000000     1.880000000    -0.167000000
O    -3.993000000    -1.917000000    -0.555000000
H    -3.379000000    -2.423000000    -0.023000000
H    -3.592000000    -1.892000000    -1.424000000
O    -2.654000000    -3.739000000     0.835000000
H    -1.827000000    -4.214000000     0.914000000
H    -3.129000000    -3.949000000     1.639000000
O     5.577000000     0.311000000     3.131000000
H     5.923000000     0.555000000     3.989000000
H     5.178000000     1.114000000     2.796000000
O     2.392000000    -4.756000000    -0.543000000
H     2.830000000    -5.363000000     0.053000000
H     3.066000000    -4.517000000    -1.180000000
O     0.628000000    -7.169000000    -0.435000000
H     1.176000000    -6.997000000    -1.200000000
H     1.212000000    -7.603000000     0.186000000
O     3.106000000     4.096000000     5.841000000
H     2.880000000     4.038000000     4.913000000
H     2.343000000     4.507000000     6.248000000
O    -3.337000000     2.967000000     4.368000000
H    -3.372000000     2.016000000     4.272000000
H    -2.480000000     3.138000000     4.759000000
O    -5.302000000     2.307000000     1.754000000
H    -5.140000000     1.447000000     1.367000000
H    -4.896000000     2.261000000     2.619000000
O    -6.323000000    -1.634000000    -3.511000000
H    -6.408000000    -2.566000000    -3.312000000
H    -5.555000000    -1.352000000    -3.014000000
O     0.781000000     5.708000000    -4.195000000
H     1.307000000     5.242000000    -3.546000000
H     1.350000000     6.414000000    -4.503000000
O     0.202000000     2.674000000    -2.610000000
H    -0.320000000     3.319000000    -3.087000000
H    -0.364000000     1.904000000    -2.551000000
O     3.257000000     5.073000000    -0.123000000
H     3.054000000     5.836000000     0.418000000
H     2.782000000     4.352000000     0.291000000
O    -1.623000000     0.440000000    -2.435000000
H    -2.522000000     0.165000000    -2.252000000
H    -1.185000000     0.409000000    -1.585000000
O    -2.722000000     6.760000000    -1.740000000
H    -1.813000000     6.871000000    -1.462000000
H    -2.907000000     5.833000000    -1.590000000
O    -3.055000000     4.814000000     2.421000000
H    -3.355000000     5.713000000     2.554000000
H    -3.303000000     4.357000000     3.224000000
O     4.424000000    -4.471000000    -2.807000000
H     4.514000000    -5.021000000    -3.585000000
H     4.760000000    -3.616000000    -3.076000000
O     6.008000000    -2.016000000    -0.573000000
H     5.339000000    -1.712000000    -1.187000000
H     5.520000000    -2.245000000     0.218000000
O     0.097000000    -6.706000000     2.587000000
H     0.126000000    -5.933000000     2.024000000
H    -0.594000000    -7.251000000     2.211000000
O    -0.008000000     6.298000000    -0.733000000
H     0.939000000     6.434000000    -0.711000000
H    -0.119000000     5.362000000    -0.568000000
