158
-2973.15268
C     1.163000000     0.684000000    -0.699000000
H     2.008000000     0.996000000    -1.308000000
C     0.840000000    -0.703000000    -0.870000000
H     1.303000000    -1.294000000    -1.656000000
C    -0.250000000    -1.195000000    -0.087000000
H    -0.570000000    -2.246000000    -0.172000000
C    -0.958000000    -0.381000000     0.781000000
H    -1.721000000    -0.772000000     1.450000000
C    -0.679000000     0.946000000     0.846000000
H    -1.324000000     1.569000000     1.460000000
C     0.396000000     1.545000000     0.130000000
C     0.837000000     2.968000000     0.306000000
O     1.779000000     3.405000000    -0.315000000
O     0.292000000     3.583000000     1.154000000
O    -3.076000000    -0.590000000    -1.220000000
H    -2.271000000    -0.767000000    -0.734000000
H    -2.781000000    -0.391000000    -2.109000000
O     2.571000000     4.358000000     5.870000000
H     2.307000000     3.982000000     5.030000000
H     3.258000000     4.986000000     5.646000000
O     3.791000000     4.503000000     1.496000000
H     3.236000000     4.730000000     2.242000000
H     3.198000000     4.078000000     0.877000000
O     4.096000000    -4.407000000     0.237000000
H     3.899000000    -5.108000000    -0.384000000
H     3.689000000    -4.689000000     1.055000000
O     1.341000000     5.239000000     2.838000000
H     0.589000000     5.494000000     3.371000000
H     0.957000000     4.847000000     2.054000000
O    -2.471000000     0.572000000    -3.815000000
H    -3.044000000     0.854000000    -4.527000000
H    -1.586000000     0.662000000    -4.169000000
O     1.918000000    -0.565000000    -3.882000000
H     1.292000000    -1.288000000    -3.934000000
H     1.604000000     0.069000000    -4.527000000
O    -4.543000000    -5.253000000    -2.177000000
H    -5.301000000    -4.932000000    -2.666000000
H    -4.803000000    -5.183000000    -1.259000000
O    -3.542000000    -4.569000000     2.406000000
H    -3.989000000    -4.444000000     1.569000000
H    -3.205000000    -5.464000000     2.367000000
O    -0.588000000     6.829000000     1.435000000
H    -1.227000000     6.232000000     1.045000000
H     0.116000000     6.881000000     0.789000000
O     0.605000000    -5.196000000     3.219000000
H     0.655000000    -5.221000000     2.263000000
H     0.346000000    -6.082000000     3.469000000
O     2.777000000    -2.356000000     2.560000000
H     2.732000000    -2.281000000     3.513000000
H     2.983000000    -3.277000000     2.401000000
O     1.026000000    -0.088000000     2.960000000
H     1.422000000    -0.954000000     3.062000000
H     0.700000000    -0.079000000     2.060000000
O    -2.116000000     4.305000000     1.841000000
H    -2.721000000     3.829000000     1.273000000
H    -1.247000000     4.076000000     1.511000000
O     3.356000000     7.917000000     0.503000000
H     3.109000000     7.725000000     1.407000000
H     2.815000000     7.328000000    -0.024000000
O    -3.789000000     2.471000000     0.661000000
H    -4.495000000     2.266000000     0.048000000
H    -3.977000000     1.933000000     1.431000000
O     1.629000000     1.444000000    -5.764000000
H     1.261000000     1.343000000    -6.642000000
H     2.573000000     1.518000000    -5.906000000
O     7.181000000     2.090000000    -1.894000000
H     6.931000000     2.714000000    -2.575000000
H     6.403000000     1.546000000    -1.770000000
O    -2.111000000    -3.323000000    -3.288000000
H    -2.937000000    -3.778000000    -3.450000000
H    -1.774000000    -3.716000000    -2.484000000
O    -1.483000000     5.345000000    -1.018000000
H    -1.935000000     5.685000000    -1.790000000
H    -1.459000000     4.398000000    -1.152000000
O     4.440000000     5.393000000    -1.447000000
H     4.481000000     5.805000000    -0.584000000
H     4.357000000     4.457000000    -1.262000000
O    -3.557000000     1.166000000     4.009000000
H    -2.857000000     0.519000000     3.922000000
H    -4.328000000     0.654000000     4.250000000
O    -0.774000000     3.263000000    -5.244000000
H    -0.083000000     2.751000000    -4.825000000
H    -0.350000000     3.661000000    -6.005000000
O    -0.950000000    -0.079000000     4.904000000
H    -0.036000000    -0.006000000     4.629000000
H    -1.088000000    -1.018000000     5.028000000
O     3.574000000     4.739000000    -4.689000000
H     3.097000000     4.206000000    -4.054000000
H     3.051000000     4.685000000    -5.489000000
O    -1.868000000     2.321000000     6.358000000
H    -1.844000000     3.220000000     6.031000000
H    -2.097000000     1.794000000     5.593000000
O     2.851000000     7.657000000     3.248000000
H     2.372000000     6.862000000     3.012000000
H     2.172000000     8.277000000     3.512000000
O     4.339000000     2.700000000    -0.933000000
H     4.308000000     2.296000000    -1.800000000
H     3.461000000     2.569000000    -0.576000000
O     0.839000000    -8.237000000    -1.721000000
H     0.138000000    -7.610000000    -1.544000000
H     0.384000000    -9.062000000    -1.893000000
O    -2.003000000    -4.689000000     5.545000000
H    -1.457000000    -4.660000000     4.759000000
H    -2.744000000    -4.118000000     5.342000000
O    -1.436000000    -4.702000000    -0.817000000
H    -0.823000000    -5.192000000    -0.269000000
H    -2.117000000    -5.337000000    -1.041000000
O     4.866000000    -2.590000000    -2.113000000
H     4.757000000    -2.910000000    -1.218000000
H     5.718000000    -2.154000000    -2.108000000
O    -5.537000000     0.298000000    -2.332000000
H    -4.654000000    -0.067000000    -2.277000000
H    -5.915000000    -0.106000000    -3.113000000
O    -0.098000000    -6.632000000     1.080000000
H     0.520000000    -7.362000000     1.070000000
H    -0.890000000    -6.994000000     1.477000000
O    -4.038000000    -3.091000000     4.517000000
H    -4.917000000    -2.713000000     4.510000000
H    -3.974000000    -3.565000000     3.688000000
O    -0.693000000     6.580000000     4.054000000
H    -0.338000000     7.429000000     4.317000000
H    -0.945000000     6.699000000     3.138000000
O    -2.418000000    -6.332000000    -3.437000000
H    -2.035000000    -5.633000000    -3.967000000
H    -3.295000000    -6.015000000    -3.220000000
O     2.069000000     2.209000000     3.572000000
H     1.773000000     2.701000000     2.807000000
H     1.698000000     1.335000000     3.453000000
O    -5.406000000    -1.921000000    -0.001000000
H    -4.774000000    -1.300000000    -0.362000000
H    -5.100000000    -2.777000000    -0.300000000
O     6.738000000     2.746000000     0.669000000
H     7.013000000     2.663000000    -0.244000000
H     5.782000000     2.763000000     0.631000000
O     0.615000000     6.104000000    -3.043000000
H     0.791000000     5.178000000    -3.210000000
H     1.237000000     6.571000000    -3.602000000
O    -1.882000000     2.733000000    -1.564000000
H    -2.267000000     2.273000000    -2.311000000
H    -2.294000000     2.333000000    -0.798000000
O     1.370000000     5.994000000    -0.308000000
H     1.397000000     5.043000000    -0.203000000
H     0.921000000     6.130000000    -1.143000000
O     1.440000000     3.479000000    -3.158000000
H     1.849000000     2.651000000    -3.410000000
H     1.444000000     3.467000000    -2.201000000
O    -0.665000000    -1.415000000    -4.560000000
H    -1.253000000    -0.932000000    -5.141000000
H    -1.192000000    -2.148000000    -4.241000000
O     2.621000000    -4.312000000    -2.858000000
H     3.070000000    -3.507000000    -2.599000000
H     1.847000000    -4.011000000    -3.335000000
O    -3.936000000     3.992000000     3.817000000
H    -3.328000000     4.215000000     3.112000000
H    -3.819000000     3.051000000     3.947000000
O     4.067000000     1.199000000    -3.181000000
H     3.284000000     0.664000000    -3.312000000
H     4.762000000     0.723000000    -3.635000000
