158
-3048.11448
C     1.269000000     0.519000000    -0.594000000
H     2.198000000     0.814000000    -1.075000000
C     0.497000000    -0.583000000    -1.030000000
H     0.896000000    -1.279000000    -1.764000000
C    -0.689000000    -0.973000000    -0.369000000
H    -1.335000000    -1.839000000    -0.600000000
C    -1.198000000    -0.196000000     0.667000000
H    -2.153000000    -0.453000000     1.119000000
C    -0.421000000     0.912000000     1.044000000
H    -0.701000000     1.431000000     1.957000000
C     0.790000000     1.278000000     0.445000000
C     1.570000000     2.382000000     1.034000000
O     2.680000000     2.660000000     0.698000000
O     1.141000000     3.074000000     1.934000000
O    -2.379000000    -4.470000000    -3.302000000
H    -2.675000000    -4.055000000    -2.493000000
H    -2.550000000    -3.819000000    -3.982000000
O     2.151000000     6.294000000    -2.363000000
H     1.551000000     5.967000000    -3.033000000
H     2.599000000     5.512000000    -2.040000000
O    -0.063000000    -6.770000000     0.273000000
H     0.410000000    -6.340000000     0.985000000
H    -0.681000000    -7.353000000     0.715000000
O    -2.167000000     0.002000000    -3.438000000
H    -3.068000000     0.318000000    -3.369000000
H    -1.742000000     0.315000000    -2.640000000
O     5.161000000     0.704000000    -2.511000000
H     4.782000000     0.209000000    -3.237000000
H     5.827000000     0.122000000    -2.145000000
O     3.038000000     5.503000000     1.492000000
H     3.906000000     5.196000000     1.757000000
H     2.493000000     4.716000000     1.502000000
O     2.364000000    -3.876000000    -5.397000000
H     1.878000000    -4.674000000    -5.190000000
H     2.966000000    -3.765000000    -4.661000000
O     4.491000000     0.883000000     0.199000000
H     3.941000000     1.589000000     0.539000000
H     4.727000000     1.167000000    -0.684000000
O    -0.885000000    -3.445000000     2.043000000
H    -0.099000000    -2.902000000     1.985000000
H    -1.575000000    -2.839000000     2.315000000
O    -2.382000000     1.716000000     5.566000000
H    -1.552000000     1.257000000     5.434000000
H    -2.610000000     2.051000000     4.699000000
O     6.979000000     2.923000000     1.032000000
H     6.991000000     3.423000000     0.215000000
H     6.145000000     3.155000000     1.442000000
O     3.947000000     4.296000000     4.969000000
H     3.294000000     4.945000000     5.231000000
H     4.624000000     4.351000000     5.643000000
O    -0.947000000     4.705000000     0.655000000
H    -0.871000000     4.097000000     1.390000000
H    -1.878000000     4.925000000     0.622000000
O     0.178000000     7.316000000    -0.273000000
H     0.823000000     7.052000000    -0.930000000
H    -0.042000000     6.505000000     0.186000000
O     2.309000000    -1.205000000    -6.598000000
H     2.484000000    -1.576000000    -7.463000000
H     2.013000000    -1.950000000    -6.074000000
O    -0.788000000     2.983000000    -3.664000000
H    -1.056000000     2.531000000    -4.464000000
H    -0.692000000     3.899000000    -3.926000000
O     4.013000000    -0.736000000    -4.432000000
H     4.140000000    -1.652000000    -4.185000000
H     3.446000000    -0.772000000    -5.203000000
O    -4.582000000     1.526000000     0.107000000
H    -3.940000000     1.853000000    -0.524000000
H    -5.412000000     1.914000000    -0.174000000
O    -5.598000000    -2.700000000     1.768000000
H    -5.526000000    -2.098000000     1.028000000
H    -6.299000000    -2.334000000     2.308000000
O    -5.978000000     0.695000000     4.588000000
H    -5.537000000     0.361000000     5.368000000
H    -5.292000000     0.729000000     3.921000000
O    -2.875000000    -2.282000000    -4.952000000
H    -3.023000000    -1.747000000    -4.173000000
H    -2.376000000    -1.715000000    -5.541000000
O     0.444000000     3.576000000     4.418000000
H     0.812000000     3.464000000     3.541000000
H     0.494000000     2.704000000     4.811000000
O     4.534000000     3.066000000     2.567000000
H     3.735000000     3.021000000     2.042000000
H     4.284000000     3.568000000     3.342000000
O     0.599000000    -4.525000000    -1.679000000
H    -0.296000000    -4.277000000    -1.912000000
H     0.501000000    -5.064000000    -0.894000000
O     5.429000000    -1.511000000     1.423000000
H     5.188000000    -0.686000000     1.002000000
H     5.500000000    -1.293000000     2.352000000
O     3.277000000     3.931000000    -1.631000000
H     4.186000000     3.644000000    -1.544000000
H     2.787000000     3.354000000    -1.045000000
O     0.095000000    -0.051000000     5.604000000
H     0.811000000     0.456000000     5.987000000
H     0.526000000    -0.647000000     4.991000000
O     1.408000000    -1.894000000     2.003000000
H     1.880000000    -1.290000000     2.576000000
H     1.206000000    -1.378000000     1.223000000
O     2.927000000     0.164000000     3.343000000
H     3.871000000     0.072000000     3.212000000
H     2.845000000     0.779000000     4.072000000
O     5.855000000     3.391000000    -2.152000000
H     5.405000000     2.742000000    -2.695000000
H     6.779000000     3.148000000    -2.206000000
O    -3.797000000     1.075000000     2.758000000
H    -4.023000000     1.127000000     1.829000000
H    -3.185000000     1.798000000     2.897000000
O     0.568000000    -5.618000000     2.796000000
H    -0.024000000    -6.370000000     2.792000000
H    -0.009000000    -4.859000000     2.715000000
O     2.285000000     1.959000000     5.580000000
H     2.495000000     1.872000000     6.510000000
H     2.865000000     2.653000000     5.268000000
O    -3.605000000    -4.491000000     0.834000000
H    -4.119000000    -3.737000000     1.124000000
H    -2.790000000    -4.432000000     1.333000000
O     3.995000000    -3.338000000    -3.220000000
H     3.728000000    -2.898000000    -2.412000000
H     4.872000000    -3.671000000    -3.032000000
O     5.490000000     0.607000000     3.631000000
H     6.273000000     0.564000000     4.179000000
H     5.238000000     1.530000000     3.646000000
O    -3.310000000    -1.957000000     3.014000000
H    -3.279000000    -1.006000000     3.117000000
H    -4.227000000    -2.147000000     2.818000000
O    -2.093000000    -7.470000000    -2.089000000
H    -1.706000000    -8.286000000    -2.404000000
H    -1.466000000    -7.140000000    -1.445000000
O    -1.917000000     2.649000000    -1.353000000
H    -1.305000000     2.823000000    -0.638000000
H    -1.375000000     2.664000000    -2.142000000
O    -1.925000000     3.117000000     3.326000000
H    -2.362000000     3.939000000     3.104000000
H    -1.098000000     3.386000000     3.726000000
O    -1.345000000    -0.258000000    -6.148000000
H    -0.714000000     0.364000000    -6.509000000
H    -1.461000000     0.019000000    -5.239000000
O    -4.123000000    -3.012000000    -1.790000000
H    -4.351000000    -3.495000000    -0.996000000
H    -4.557000000    -2.165000000    -1.688000000
O     1.000000000     6.191000000     5.138000000
H     0.664000000     5.485000000     4.586000000
H     1.002000000     5.824000000     6.022000000
O     1.338000000     7.492000000     2.743000000
H     1.956000000     6.949000000     2.254000000
H     1.292000000     7.084000000     3.608000000
O     3.682000000    -1.629000000    -1.155000000
H     3.822000000    -0.709000000    -0.931000000
H     3.678000000    -2.083000000    -0.312000000
O    -5.519000000    -1.055000000    -0.469000000
H    -5.093000000    -0.236000000    -0.213000000
H    -6.347000000    -0.781000000    -0.863000000
O     2.408000000    -3.735000000     0.300000000
H     2.057000000    -3.056000000     0.877000000
H     1.931000000    -3.620000000    -0.522000000
O    -4.760000000     0.423000000    -3.880000000
H    -5.105000000     0.984000000    -3.185000000
H    -5.285000000     0.644000000    -4.649000000
