158
-3046.75779
C     1.398000000     0.392000000    -0.097000000
H     2.462000000     0.589000000    -0.193000000
C     0.834000000    -0.806000000    -0.552000000
H     1.415000000    -1.603000000    -1.008000000
C    -0.491000000    -1.073000000    -0.350000000
H    -1.099000000    -1.796000000    -0.855000000
C    -1.290000000    -0.138000000     0.301000000
H    -2.335000000    -0.422000000     0.395000000
C    -0.745000000     1.149000000     0.636000000
H    -1.361000000     1.985000000     0.957000000
C     0.619000000     1.339000000     0.550000000
C     1.308000000     2.626000000     0.928000000
O     2.454000000     2.904000000     0.627000000
O     0.661000000     3.528000000     1.433000000
O     0.580000000    -3.199000000    -5.143000000
H    -0.307000000    -3.088000000    -5.486000000
H     1.041000000    -2.404000000    -5.411000000
O    -3.466000000    -2.934000000     2.510000000
H    -3.766000000    -2.028000000     2.586000000
H    -4.132000000    -3.362000000     1.972000000
O    -3.461000000     4.013000000    -0.685000000
H    -2.916000000     4.415000000    -1.362000000
H    -2.975000000     4.151000000     0.128000000
O     4.020000000    -1.817000000    -3.436000000
H     4.527000000    -1.067000000    -3.123000000
H     3.998000000    -2.418000000    -2.692000000
O     1.514000000     6.084000000     1.640000000
H     0.997000000     6.392000000     2.385000000
H     1.217000000     5.185000000     1.498000000
O     0.440000000    -5.544000000    -3.805000000
H     0.460000000    -4.660000000    -4.173000000
H    -0.186000000    -6.017000000    -4.353000000
O    -1.582000000    -5.125000000    -1.677000000
H    -0.680000000    -4.898000000    -1.904000000
H    -2.074000000    -4.315000000    -1.812000000
O    -0.394000000     0.249000000    -4.737000000
H    -0.159000000     0.906000000    -5.393000000
H    -0.800000000    -0.457000000    -5.240000000
O     4.614000000     1.350000000     1.207000000
H     4.052000000     2.041000000     0.856000000
H     5.413000000     1.803000000     1.474000000
O    -1.744000000    -2.983000000     4.458000000
H    -0.914000000    -2.555000000     4.250000000
H    -2.207000000    -3.027000000     3.621000000
O     6.537000000     6.090000000     1.326000000
H     7.142000000     6.651000000     0.840000000
H     5.711000000     6.158000000     0.848000000
O    -0.919000000     7.086000000    -1.128000000
H    -1.766000000     7.307000000    -1.516000000
H    -0.313000000     7.070000000    -1.869000000
O     4.998000000    -1.140000000     1.131000000
H     4.891000000    -0.189000000     1.143000000
H     5.907000000    -1.276000000     0.864000000
O    -0.769000000     3.970000000    -1.718000000
H    -0.879000000     3.020000000    -1.756000000
H    -0.034000000     4.102000000    -1.119000000
O    -5.362000000    -4.207000000     0.733000000
H    -5.384000000    -3.719000000    -0.091000000
H    -6.056000000    -3.814000000     1.262000000
O    -4.414000000    -1.907000000    -4.499000000
H    -5.131000000    -1.313000000    -4.720000000
H    -4.694000000    -2.757000000    -4.838000000
O    -0.476000000    -6.352000000     0.534000000
H    -1.023000000    -5.781000000    -0.005000000
H     0.039000000    -6.855000000    -0.097000000
O     0.130000000     3.082000000     3.897000000
H     0.436000000     3.203000000     2.998000000
H     0.001000000     3.970000000     4.228000000
O     2.857000000     0.222000000     3.874000000
H     3.403000000     0.906000000     3.486000000
H     2.797000000    -0.450000000     3.195000000
O     3.878000000     6.867000000     0.336000000
H     3.047000000     6.713000000     0.786000000
H     3.631000000     7.014000000    -0.578000000
O     1.470000000    -6.552000000    -1.509000000
H     1.830000000    -5.815000000    -1.016000000
H     1.161000000    -6.164000000    -2.328000000
O     3.535000000     4.478000000    -1.280000000
H     3.740000000     5.245000000    -0.744000000
H     3.218000000     3.827000000    -0.654000000
O    -1.329000000     0.603000000     4.097000000
H    -0.958000000     1.455000000     3.866000000
H    -0.757000000    -0.032000000     3.666000000
O     2.769000000    -1.998000000     2.371000000
H     3.549000000    -1.725000000     1.889000000
H     2.723000000    -2.945000000     2.235000000
O     1.294000000     7.189000000     4.500000000
H     1.359000000     6.386000000     5.017000000
H     1.095000000     7.871000000     5.141000000
O    -1.448000000     1.252000000    -2.461000000
H    -1.420000000     0.476000000    -1.902000000
H    -0.931000000     1.012000000    -3.231000000
O     0.147000000    -1.698000000     2.985000000
H     1.071000000    -1.574000000     2.767000000
H    -0.297000000    -1.726000000     2.138000000
O    -2.801000000    -7.281000000     1.984000000
H    -2.906000000    -6.806000000     2.808000000
H    -1.910000000    -7.075000000     1.701000000
O    -4.966000000    -6.950000000     0.046000000
H    -5.102000000    -6.009000000     0.151000000
H    -4.142000000    -7.126000000     0.500000000
O    -4.347000000     1.800000000     0.824000000
H    -5.093000000     2.220000000     1.252000000
H    -3.997000000     2.472000000     0.239000000
O     1.783000000     2.271000000     6.068000000
H     2.595000000     1.895000000     5.727000000
H     1.236000000     2.400000000     5.293000000
O     3.558000000     4.375000000     2.690000000
H     3.247000000     3.662000000     2.132000000
H     3.017000000     5.125000000     2.443000000
O     1.901000000    -4.339000000    -0.134000000
H     1.748000000    -3.490000000     0.281000000
H     2.792000000    -4.575000000     0.126000000
O     6.164000000     3.019000000     3.115000000
H     6.995000000     3.489000000     3.191000000
H     5.536000000     3.686000000     2.839000000
O    -3.929000000    -0.297000000     2.819000000
H    -3.391000000     0.118000000     3.493000000
H    -3.834000000     0.271000000     2.054000000
O    -3.589000000    -6.902000000    -2.644000000
H    -3.000000000    -6.226000000    -2.308000000
H    -3.862000000    -7.390000000    -1.868000000
O    -5.979000000    -3.735000000    -1.832000000
H    -6.559000000    -4.486000000    -1.959000000
H    -6.560000000    -2.976000000    -1.869000000
O    -1.908000000     4.664000000     1.607000000
H    -1.755000000     5.180000000     2.398000000
H    -1.070000000     4.233000000     1.437000000
O     2.082000000    -0.941000000    -5.445000000
H     2.868000000    -1.206000000    -4.968000000
H     1.512000000    -0.561000000    -4.777000000
O    -3.332000000    -3.136000000    -2.358000000
H    -4.167000000    -3.450000000    -2.010000000
H    -3.576000000    -2.576000000    -3.095000000
O     0.205000000     8.370000000     1.254000000
H     0.797000000     7.632000000     1.111000000
H    -0.549000000     8.185000000     0.694000000
O    -1.770000000    -2.098000000    -5.881000000
H    -2.571000000    -1.967000000    -5.373000000
H    -2.048000000    -2.014000000    -6.793000000
O     4.906000000    -3.444000000    -0.987000000
H     4.526000000    -4.139000000    -0.449000000
H     5.851000000    -3.548000000    -0.879000000
O    -6.880000000    -1.686000000     1.010000000
H    -6.159000000    -1.256000000     0.550000000
H    -7.146000000    -1.057000000     1.680000000
O    -5.110000000    -0.379000000    -0.751000000
H    -4.576000000     0.377000000    -0.509000000
H    -5.651000000    -0.068000000    -1.477000000
O     3.519000000     3.907000000    -3.861000000
H     2.684000000     3.498000000    -4.092000000
H     3.434000000     4.113000000    -2.930000000
O    -1.316000000     6.355000000     3.624000000
H    -1.400000000     6.063000000     4.532000000
H    -0.772000000     7.141000000     3.675000000
O    -3.598000000     6.556000000     1.513000000
H    -3.691000000     6.433000000     2.457000000
H    -2.887000000     5.966000000     1.263000000
