158
-3062.34008
C     1.186000000     0.070000000     0.856000000
H     2.077000000     0.043000000     1.477000000
C     0.627000000    -1.056000000     0.410000000
H     1.096000000    -2.017000000     0.607000000
C    -0.542000000    -1.042000000    -0.398000000
H    -0.889000000    -1.926000000    -0.899000000
C    -1.046000000     0.198000000    -0.786000000
H    -1.843000000     0.276000000    -1.521000000
C    -0.421000000     1.339000000    -0.232000000
H    -0.786000000     2.278000000    -0.641000000
C     0.663000000     1.316000000     0.578000000
C     1.306000000     2.573000000     1.186000000
O     2.376000000     2.504000000     1.745000000
O     0.707000000     3.635000000     1.148000000
O     2.472000000    -5.445000000    -2.510000000
H     2.723000000    -4.670000000    -3.012000000
H     2.958000000    -6.162000000    -2.918000000
O     4.954000000    -0.023000000     1.365000000
H     5.232000000     0.758000000     1.845000000
H     5.101000000    -0.745000000     1.976000000
O    -4.878000000    -5.149000000     1.357000000
H    -4.377000000    -4.924000000     2.141000000
H    -4.300000000    -5.728000000     0.861000000
O    -2.866000000     0.717000000     2.102000000
H    -2.468000000     0.706000000     2.973000000
H    -2.126000000     0.805000000     1.502000000
O     6.261000000     5.700000000     2.415000000
H     5.474000000     5.591000000     1.881000000
H     6.962000000     5.313000000     1.890000000
O     1.805000000     3.223000000    -4.977000000
H     2.500000000     3.676000000    -4.500000000
H     1.256000000     2.839000000    -4.293000000
O    -5.223000000    -2.991000000    -3.338000000
H    -4.616000000    -3.265000000    -4.025000000
H    -5.344000000    -2.053000000    -3.485000000
O    -4.644000000     1.823000000    -2.577000000
H    -4.383000000     2.496000000    -1.949000000
H    -3.952000000     1.831000000    -3.239000000
O    -6.289000000     1.946000000    -0.507000000
H    -5.786000000     1.676000000    -1.275000000
H    -5.804000000     1.585000000     0.236000000
O     4.145000000    -4.050000000     2.466000000
H     3.871000000    -3.731000000     1.606000000
H     3.334000000    -4.344000000     2.881000000
O     1.587000000     4.505000000     3.751000000
H     2.510000000     4.279000000     3.870000000
H     1.313000000     3.997000000     2.987000000
O    -3.541000000    -3.077000000     2.642000000
H    -3.799000000    -2.969000000     1.727000000
H    -2.633000000    -2.775000000     2.673000000
O     2.794000000     6.014000000    -1.110000000
H     3.447000000     5.750000000    -1.758000000
H     2.719000000     6.962000000    -1.218000000
O     3.020000000     1.553000000    -2.187000000
H     2.079000000     1.615000000    -2.020000000
H     3.239000000     0.643000000    -1.983000000
O    -2.474000000     0.733000000    -5.103000000
H    -1.771000000     1.154000000    -5.597000000
H    -3.109000000     0.468000000    -5.768000000
O    -0.042000000    -1.086000000    -4.588000000
H     0.647000000    -0.503000000    -4.908000000
H    -0.858000000    -0.641000000    -4.817000000
O     5.989000000     5.179000000    -1.189000000
H     5.483000000     4.499000000    -0.744000000
H     6.779000000     4.732000000    -1.491000000
O     7.143000000     2.402000000     0.325000000
H     6.204000000     2.586000000     0.333000000
H     7.215000000     1.540000000    -0.084000000
O    -5.903000000    -0.419000000    -3.587000000
H    -5.352000000     0.309000000    -3.299000000
H    -6.726000000    -0.298000000    -3.113000000
O    -3.708000000    -6.025000000    -2.390000000
H    -4.578000000    -5.657000000    -2.238000000
H    -3.186000000    -5.285000000    -2.703000000
O     0.493000000     1.637000000    -3.158000000
H    -0.072000000     2.328000000    -2.813000000
H    -0.065000000     0.859000000    -3.179000000
O    -4.734000000    -0.491000000     0.645000000
H    -4.098000000    -0.137000000     1.267000000
H    -4.249000000    -1.160000000     0.162000000
O    -0.028000000    -3.472000000    -5.610000000
H    -0.071000000    -2.566000000    -5.306000000
H     0.700000000    -3.855000000    -5.121000000
O     1.001000000     6.151000000     1.516000000
H     0.715000000     5.251000000     1.360000000
H     1.946000000     6.083000000     1.650000000
O    -0.979000000    -1.774000000     2.740000000
H    -1.231000000    -0.918000000     3.088000000
H    -0.466000000    -1.572000000     1.957000000
O     0.584000000     4.318000000    -1.542000000
H     0.465000000     4.147000000    -0.608000000
H     1.287000000     4.966000000    -1.579000000
O    -2.149000000    -6.486000000     2.704000000
H    -2.921000000    -6.992000000     2.961000000
H    -2.127000000    -6.552000000     1.749000000
O    -3.585000000    -2.697000000    -0.923000000
H    -4.367000000    -3.188000000    -1.174000000
H    -3.006000000    -2.764000000    -1.682000000
O     2.221000000    -3.085000000    -3.993000000
H     1.642000000    -2.535000000    -3.466000000
H     2.905000000    -2.489000000    -4.299000000
O     0.003000000    -4.423000000     3.530000000
H    -0.368000000    -3.542000000     3.470000000
H    -0.446000000    -4.919000000     2.845000000
O     4.523000000    -0.040000000     5.932000000
H     5.415000000     0.142000000     5.636000000
H     3.967000000     0.465000000     5.339000000
O     0.801000000     1.592000000     5.161000000
H     1.486000000     1.475000000     4.502000000
H     1.236000000     1.407000000     5.993000000
O    -2.779000000    -6.767000000     0.053000000
H    -3.230000000    -6.444000000    -0.727000000
H    -2.319000000    -7.552000000    -0.245000000
O     1.522000000    -5.090000000     0.815000000
H     1.163000000    -5.813000000     0.301000000
H     0.753000000    -4.614000000     1.129000000
O     3.404000000     1.771000000     3.990000000
H     3.053000000     1.870000000     3.105000000
H     3.977000000     2.528000000     4.107000000
O     3.758000000     5.487000000     1.315000000
H     3.539000000     4.619000000     1.653000000
H     3.374000000     5.506000000     0.438000000
O    -1.969000000    -3.864000000    -3.208000000
H    -1.251000000    -4.353000000    -2.807000000
H    -1.640000000    -3.620000000    -4.073000000
O     4.781000000     4.317000000     4.065000000
H     5.512000000     4.845000000     3.743000000
H     4.884000000     4.319000000     5.016000000
O    -0.890000000     3.877000000     4.485000000
H    -0.043000000     4.291000000     4.317000000
H    -0.673000000     3.065000000     4.943000000
O     4.305000000     2.928000000     0.026000000
H     3.898000000     2.504000000    -0.730000000
H     3.685000000     2.789000000     0.741000000
O    -1.675000000    -4.173000000     0.668000000
H    -2.172000000    -3.527000000     0.165000000
H    -1.779000000    -4.989000000     0.178000000
O     3.541000000    -3.603000000    -0.247000000
H     2.744000000    -4.132000000    -0.235000000
H     4.173000000    -4.133000000    -0.732000000
O     2.100000000     6.968000000     4.530000000
H     1.833000000     6.092000000     4.252000000
H     1.419000000     7.546000000     4.187000000
O     4.016000000    -0.927000000    -0.916000000
H     4.541000000    -0.535000000    -0.218000000
H     3.758000000    -1.782000000    -0.571000000
O    -0.461000000    -5.623000000    -1.930000000
H    -0.991000000    -6.408000000    -2.068000000
H     0.443000000    -5.925000000    -2.028000000
O    -3.666000000     3.989000000    -0.658000000
H    -4.393000000     4.548000000    -0.930000000
H    -3.742000000     3.945000000     0.295000000
O     0.213000000     8.316000000     2.806000000
H     0.396000000     7.586000000     2.215000000
H     0.478000000     9.094000000     2.315000000
O    -1.910000000     3.857000000    -2.838000000
H    -1.056000000     4.189000000    -2.561000000
H    -2.474000000     3.980000000    -2.074000000
