158
-3039.78908
C     1.210000000     0.024000000     0.836000000
H     2.016000000    -0.061000000     1.560000000
C     0.698000000    -1.112000000     0.226000000
H     1.139000000    -2.103000000     0.292000000
C    -0.369000000    -0.932000000    -0.607000000
H    -0.765000000    -1.779000000    -1.123000000
C    -1.081000000     0.277000000    -0.685000000
H    -2.001000000     0.396000000    -1.251000000
C    -0.573000000     1.381000000    -0.034000000
H    -1.140000000     2.306000000     0.037000000
C     0.639000000     1.266000000     0.650000000
C     1.169000000     2.421000000     1.352000000
O     1.996000000     2.303000000     2.192000000
O     0.506000000     3.423000000     1.146000000
O    -2.612000000    -5.403000000     0.057000000
H    -2.537000000    -4.566000000     0.515000000
H    -3.392000000    -5.811000000     0.430000000
O     0.864000000    -4.837000000    -3.226000000
H     0.442000000    -4.148000000    -3.738000000
H     1.604000000    -5.117000000    -3.764000000
O    -4.924000000     0.957000000    -0.856000000
H    -4.549000000     1.325000000    -0.056000000
H    -5.840000000     0.790000000    -0.636000000
O     3.252000000     3.288000000    -1.494000000
H     4.122000000     3.684000000    -1.435000000
H     3.339000000     2.618000000    -2.172000000
O     3.681000000     2.528000000     4.138000000
H     3.054000000     2.447000000     3.420000000
H     3.916000000     1.626000000     4.353000000
O    -3.782000000     5.342000000    -2.589000000
H    -4.110000000     4.855000000    -3.345000000
H    -2.861000000     5.505000000    -2.791000000
O    -2.940000000    -3.929000000    -2.229000000
H    -3.358000000    -3.203000000    -1.765000000
H    -2.974000000    -4.659000000    -1.610000000
O     1.570000000    -1.886000000     3.433000000
H     0.843000000    -1.376000000     3.790000000
H     1.162000000    -2.469000000     2.793000000
O    -2.661000000    -0.108000000     1.770000000
H    -2.216000000     0.089000000     0.946000000
H    -2.864000000     0.750000000     2.143000000
O     0.384000000     1.091000000     7.352000000
H     0.660000000     1.433000000     6.502000000
H     1.202000000     0.886000000     7.805000000
O     5.376000000    -1.218000000    -0.287000000
H     4.651000000    -1.842000000    -0.306000000
H     6.151000000    -1.756000000    -0.126000000
O     0.137000000    -3.619000000     2.052000000
H     0.205000000    -4.570000000     2.140000000
H    -0.801000000    -3.439000000     2.112000000
O    -1.993000000     0.669000000    -5.015000000
H    -2.797000000     0.740000000    -5.530000000
H    -2.234000000     0.996000000    -4.149000000
O     1.515000000    -0.333000000    -2.660000000
H     1.446000000    -0.019000000    -1.758000000
H     1.176000000    -1.228000000    -2.629000000
O     1.660000000    -5.874000000     3.801000000
H     2.029000000    -5.922000000     2.920000000
H     0.727000000    -5.711000000     3.662000000
O     5.578000000    -5.041000000    -0.599000000
H     4.657000000    -4.968000000    -0.350000000
H     5.910000000    -5.771000000    -0.076000000
O    -3.224000000     6.741000000     1.165000000
H    -3.021000000     7.218000000     0.361000000
H    -3.871000000     6.087000000     0.899000000
O    -0.368000000    -6.476000000     2.141000000
H    -1.050000000    -6.966000000     1.683000000
H     0.228000000    -7.148000000     2.473000000
O     0.633000000     2.580000000    -3.614000000
H     0.758000000     3.146000000    -2.853000000
H     0.602000000     1.695000000    -3.252000000
O    -1.259000000    -3.146000000    -4.626000000
H    -1.935000000    -2.849000000    -5.235000000
H    -1.743000000    -3.443000000    -3.856000000
O     1.449000000    -2.319000000    -4.895000000
H     1.504000000    -1.371000000    -5.011000000
H     0.564000000    -2.545000000    -5.181000000
O     0.832000000     4.515000000    -1.265000000
H     1.732000000     4.190000000    -1.254000000
H     0.450000000     4.191000000    -0.449000000
O     0.543000000     4.953000000     6.080000000
H     1.260000000     4.765000000     5.474000000
H    -0.249000000     4.857000000     5.552000000
O    -3.527000000     2.853000000     1.843000000
H    -3.826000000     3.489000000     1.194000000
H    -3.464000000     3.352000000     2.657000000
O    -4.870000000    -4.818000000    -4.034000000
H    -4.387000000    -5.414000000    -4.606000000
H    -4.266000000    -4.635000000    -3.315000000
O    -0.811000000    -0.598000000     4.000000000
H    -1.262000000    -0.892000000     4.791000000
H    -1.515000000    -0.371000000     3.393000000
O    -2.683000000    -3.115000000     1.699000000
H    -3.541000000    -3.134000000     2.122000000
H    -2.637000000    -2.250000000     1.291000000
O     2.503000000    -5.156000000    -1.219000000
H     1.795000000    -4.562000000    -1.467000000
H     2.180000000    -6.026000000    -1.455000000
O    -4.739000000     4.776000000    -0.032000000
H    -5.581000000     4.538000000    -0.418000000
H    -4.196000000     5.027000000    -0.779000000
O    -0.585000000     4.398000000     3.324000000
H    -0.247000000     4.286000000     2.436000000
H    -0.410000000     3.562000000     3.755000000
O    -5.303000000    -0.789000000     2.963000000
H    -4.413000000    -0.616000000     2.657000000
H    -5.797000000    -0.006000000     2.718000000
O    -3.985000000    -1.525000000    -1.692000000
H    -4.193000000    -0.823000000    -1.076000000
H    -4.273000000    -1.191000000    -2.542000000
O     4.003000000    -3.261000000    -2.726000000
H     3.532000000    -3.926000000    -2.224000000
H     3.392000000    -3.004000000    -3.416000000
O    -1.524000000     7.071000000     3.384000000
H    -1.220000000     6.167000000     3.460000000
H    -2.168000000     7.049000000     2.676000000
O     3.580000000     1.307000000    -3.559000000
H     2.891000000     0.646000000    -3.498000000
H     4.395000000     0.806000000    -3.536000000
O     2.688000000     5.339000000     4.541000000
H     2.701000000     5.637000000     3.632000000
H     3.262000000     4.573000000     4.551000000
O     3.498000000    -2.639000000     1.505000000
H     2.734000000    -2.302000000     1.973000000
H     4.236000000    -2.153000000     1.871000000
O     2.887000000     5.052000000     1.312000000
H     1.959000000     4.912000000     1.121000000
H     3.179000000     4.228000000     1.700000000
O     0.411000000     1.915000000     4.588000000
H     0.980000000     2.143000000     3.853000000
H     0.032000000     1.070000000     4.345000000
O     3.725000000    -0.299000000     4.376000000
H     4.081000000    -0.728000000     5.154000000
H     2.992000000    -0.854000000     4.111000000
O     3.588000000     7.526000000     2.106000000
H     3.591000000     6.596000000     1.881000000
H     2.746000000     7.665000000     2.540000000
O     4.006000000     2.455000000     7.265000000
H     3.413000000     2.614000000     6.532000000
H     3.852000000     1.541000000     7.504000000
O    -0.505000000    -6.895000000    -1.216000000
H    -0.424000000    -6.121000000    -1.773000000
H    -1.272000000    -6.718000000    -0.672000000
O    -0.962000000     5.833000000    -2.548000000
H    -0.499000000     5.810000000    -3.385000000
H    -0.531000000     5.163000000    -2.017000000
O    -3.241000000     1.893000000    -2.809000000
H    -3.844000000     1.663000000    -2.101000000
H    -3.433000000     2.812000000    -2.997000000
O     5.813000000     0.363000000     2.168000000
H     5.022000000     0.402000000     2.707000000
H     5.497000000     0.126000000     1.296000000
O     1.707000000     7.113000000    -1.713000000
H     1.275000000     6.280000000    -1.520000000
H     1.228000000     7.757000000    -1.192000000
O     3.273000000    -5.483000000     1.521000000
H     2.742000000    -5.877000000     0.829000000
H     3.327000000    -4.557000000     1.284000000
