158
-3040.32575
C     1.382000000    -0.362000000    -0.457000000
H     2.310000000    -0.657000000    -0.940000000
C     0.230000000    -1.103000000    -0.606000000
H     0.254000000    -2.089000000    -1.064000000
C    -1.039000000    -0.742000000    -0.141000000
H    -1.863000000    -1.329000000    -0.459000000
C    -1.128000000     0.480000000     0.559000000
H    -2.042000000     0.881000000     0.992000000
C    -0.002000000     1.254000000     0.687000000
H    -0.079000000     2.234000000     1.152000000
C     1.268000000     0.900000000     0.173000000
C     2.526000000     1.769000000     0.313000000
O     3.669000000     1.344000000     0.081000000
O     2.348000000     2.965000000     0.534000000
O    -2.175000000    -3.781000000     2.408000000
H    -2.356000000    -3.587000000     1.488000000
H    -3.000000000    -3.597000000     2.858000000
O    -4.742000000     0.704000000    -3.576000000
H    -4.641000000     1.311000000    -4.309000000
H    -4.165000000    -0.029000000    -3.790000000
O     1.524000000     2.115000000    -2.630000000
H     2.027000000     2.601000000    -3.283000000
H     1.799000000     1.205000000    -2.744000000
O     3.180000000     3.257000000     3.969000000
H     3.858000000     2.582000000     4.002000000
H     3.309000000     3.684000000     3.122000000
O    -5.091000000    -2.546000000    -1.662000000
H    -5.725000000    -3.145000000    -2.057000000
H    -4.959000000    -1.867000000    -2.323000000
O    -4.575000000     2.208000000    -1.255000000
H    -3.645000000     2.218000000    -1.480000000
H    -4.987000000     1.707000000    -1.959000000
O    -0.579000000     5.792000000     3.160000000
H     0.190000000     5.605000000     2.621000000
H    -1.091000000     4.984000000     3.134000000
O    -2.795000000    -5.284000000    -2.833000000
H    -2.061000000    -4.971000000    -3.362000000
H    -3.498000000    -5.437000000    -3.464000000
O     6.227000000     1.989000000    -0.898000000
H     6.632000000     1.268000000    -0.416000000
H     5.294000000     1.918000000    -0.696000000
O     0.977000000    -0.804000000     4.749000000
H     1.329000000    -1.417000000     5.394000000
H     0.728000000    -1.354000000     4.006000000
O     7.235000000    -0.100000000     0.838000000
H     6.724000000     0.045000000     1.635000000
H     7.410000000    -1.041000000     0.833000000
O    -1.803000000     3.085000000     3.399000000
H    -2.527000000     2.957000000     2.786000000
H    -1.708000000     2.239000000     3.837000000
O     7.545000000     4.477000000    -0.874000000
H     7.009000000     3.696000000    -0.733000000
H     7.342000000     5.045000000    -0.131000000
O     6.484000000    -2.254000000    -3.142000000
H     6.128000000    -2.551000000    -2.305000000
H     6.718000000    -3.060000000    -3.602000000
O    -0.535000000    -2.091000000    -3.443000000
H    -0.237000000    -1.478000000    -4.115000000
H    -0.591000000    -1.564000000    -2.646000000
O     2.693000000    -2.172000000    -4.974000000
H     1.943000000    -1.666000000    -5.285000000
H     3.456000000    -1.658000000    -5.239000000
O     4.249000000     0.308000000    -2.881000000
H     4.206000000    -0.646000000    -2.947000000
H     4.838000000     0.471000000    -2.144000000
O    -0.658000000    -4.664000000    -4.599000000
H    -0.277000000    -3.980000000    -4.048000000
H    -0.239000000    -4.547000000    -5.451000000
O    -5.300000000    -0.383000000     0.512000000
H    -5.326000000    -1.060000000    -0.165000000
H    -4.657000000     0.250000000     0.192000000
O     2.758000000     0.885000000    -5.184000000
H     3.448000000     0.893000000    -4.522000000
H     2.981000000     1.608000000    -5.771000000
O     1.578000000    -5.989000000    -3.608000000
H     0.789000000    -5.514000000    -3.868000000
H     1.739000000    -5.713000000    -2.706000000
O     0.395000000     4.450000000    -1.079000000
H     0.920000000     3.775000000    -1.509000000
H     0.647000000     4.400000000    -0.157000000
O    -1.826000000     2.372000000    -2.090000000
H    -1.256000000     2.524000000    -2.843000000
H    -1.259000000     1.957000000    -1.440000000
O     0.843000000     3.523000000     5.121000000
H     0.109000000     3.593000000     4.511000000
H     1.597000000     3.325000000     4.565000000
O    -6.351000000    -4.613000000     0.379000000
H    -6.960000000    -4.339000000     1.064000000
H    -5.971000000    -3.797000000     0.054000000
O    -1.255000000     0.960000000     4.963000000
H    -1.797000000     0.265000000     4.589000000
H    -0.368000000     0.602000000     4.957000000
O     1.635000000     5.147000000     1.604000000
H     2.115000000     5.893000000     1.244000000
H     2.146000000     4.382000000     1.337000000
O    -2.730000000    -3.744000000    -0.378000000
H    -3.546000000    -3.299000000    -0.608000000
H    -2.559000000    -4.329000000    -1.116000000
O     3.834000000     4.681000000    -0.953000000
H     3.086000000     4.134000000    -0.711000000
H     4.486000000     4.508000000    -0.274000000
O    -0.777000000    -7.440000000     0.807000000
H    -0.559000000    -6.565000000     1.128000000
H    -0.975000000    -7.943000000     1.596000000
O     1.247000000     5.830000000    -3.253000000
H     1.586000000     6.627000000    -2.845000000
H     0.825000000     5.355000000    -2.537000000
O     1.478000000    -5.086000000    -1.024000000
H     2.151000000    -4.565000000    -0.586000000
H     0.781000000    -5.171000000    -0.374000000
O     5.065000000     5.139000000    -3.337000000
H     5.787000000     4.589000000    -3.639000000
H     4.784000000     4.735000000    -2.516000000
O     3.051000000    -1.570000000     2.997000000
H     2.260000000    -2.102000000     2.912000000
H     3.156000000    -1.446000000     3.940000000
O     0.198000000    -2.364000000     2.639000000
H     0.110000000    -1.803000000     1.867000000
H    -0.696000000    -2.648000000     2.831000000
O    -2.608000000    -0.987000000     3.875000000
H    -2.489000000    -1.762000000     4.424000000
H    -3.508000000    -1.056000000     3.556000000
O     4.975000000     3.723000000     1.584000000
H     4.483000000     2.950000000     1.306000000
H     5.836000000     3.384000000     1.828000000
O     2.642000000    -2.678000000    -2.344000000
H     2.512000000    -2.319000000    -3.222000000
H     1.806000000    -3.089000000    -2.127000000
O     5.376000000     1.743000000     4.636000000
H     6.176000000     2.257000000     4.740000000
H     5.410000000     1.425000000     3.734000000
O     0.198000000    -5.062000000     1.654000000
H    -0.239000000    -4.412000000     2.204000000
H     1.129000000    -4.852000000     1.728000000
O    -3.987000000     2.659000000     1.783000000
H    -3.494000000     2.785000000     0.972000000
H    -4.904000000     2.714000000     1.516000000
O     5.248000000    -2.787000000    -0.812000000
H     5.097000000    -3.727000000    -0.917000000
H     4.516000000    -2.374000000    -1.270000000
O    -5.302000000    -1.295000000     3.095000000
H    -5.376000000    -0.772000000     2.297000000
H    -5.977000000    -1.967000000     3.005000000
O     2.772000000    -4.470000000     1.582000000
H     3.614000000    -4.888000000     1.761000000
H     2.922000000    -3.542000000     1.761000000
O     4.935000000     0.515000000     2.206000000
H     4.451000000    -0.259000000     2.495000000
H     4.501000000     0.781000000     1.396000000
O     2.588000000     7.436000000     0.538000000
H     2.754000000     7.019000000    -0.307000000
H     2.764000000     8.364000000     0.386000000
O    -3.234000000    -1.858000000    -3.995000000
H    -3.393000000    -2.401000000    -4.768000000
H    -2.415000000    -2.194000000    -3.632000000
O    -2.165000000     4.759000000    -0.242000000
H    -1.255000000     5.051000000    -0.189000000
H    -2.226000000     4.318000000    -1.089000000
