158
-3045.18308
C     1.431000000    -0.347000000    -0.176000000
H     2.414000000    -0.751000000    -0.403000000
C     0.391000000    -1.284000000    -0.360000000
H     0.500000000    -2.336000000    -0.609000000
C    -0.895000000    -0.797000000    -0.233000000
H    -1.794000000    -1.449000000    -0.418000000
C    -1.150000000     0.513000000     0.096000000
H    -2.188000000     0.820000000     0.197000000
C    -0.100000000     1.423000000     0.323000000
H    -0.352000000     2.442000000     0.602000000
C     1.203000000     1.023000000     0.175000000
C     2.365000000     1.932000000     0.230000000
O     3.538000000     1.522000000     0.304000000
O     2.107000000     3.106000000     0.361000000
O    -0.609000000    -4.966000000     0.213000000
H     0.236000000    -5.126000000     0.633000000
H    -1.081000000    -4.408000000     0.831000000
O     6.531000000     4.449000000     0.670000000
H     6.647000000     3.958000000     1.484000000
H     6.605000000     5.366000000     0.932000000
O    -6.666000000    -0.016000000    -0.807000000
H    -7.404000000     0.423000000    -1.229000000
H    -6.936000000    -0.933000000    -0.744000000
O     2.787000000     2.616000000    -3.887000000
H     3.162000000     1.735000000    -3.881000000
H     1.899000000     2.496000000    -4.222000000
O     3.272000000    -1.054000000     4.577000000
H     3.673000000    -1.012000000     3.708000000
H     3.626000000    -1.854000000     4.965000000
O    -3.553000000     2.349000000    -1.946000000
H    -3.730000000     2.390000000    -2.885000000
H    -2.614000000     2.521000000    -1.871000000
O    -3.826000000     6.309000000    -0.393000000
H    -3.583000000     7.067000000    -0.925000000
H    -3.018000000     6.065000000     0.059000000
O    -2.037000000    -3.966000000    -2.140000000
H    -2.985000000    -3.981000000    -2.010000000
H    -1.681000000    -4.374000000    -1.351000000
O     1.848000000    -5.096000000     1.377000000
H     1.427000000    -4.653000000     2.113000000
H     2.013000000    -5.984000000     1.694000000
O    -0.604000000    -0.810000000     2.746000000
H    -0.414000000    -0.497000000     1.862000000
H    -1.181000000    -0.142000000     3.117000000
O     7.376000000     2.435000000    -2.941000000
H     6.533000000     2.863000000    -3.091000000
H     7.358000000     2.189000000    -2.016000000
O     7.235000000    -0.951000000     1.405000000
H     6.353000000    -1.207000000     1.673000000
H     7.498000000    -1.622000000     0.774000000
O    -1.373000000    -1.469000000    -3.783000000
H    -2.259000000    -1.264000000    -3.484000000
H    -0.954000000    -1.877000000    -3.025000000
O     0.847000000    -3.589000000    -2.837000000
H     0.267000000    -3.729000000    -2.088000000
H     1.084000000    -4.471000000    -3.125000000
O     4.383000000     7.342000000     2.338000000
H     3.578000000     6.896000000     2.076000000
H     4.146000000     7.812000000     3.138000000
O     5.243000000    -0.010000000    -0.979000000
H     6.109000000     0.323000000    -0.745000000
H     4.637000000     0.670000000    -0.686000000
O     7.986000000     1.151000000    -0.296000000
H     7.851000000     0.734000000     0.555000000
H     8.934000000     1.126000000    -0.427000000
O    -2.900000000     3.076000000     1.740000000
H    -2.366000000     3.296000000     0.977000000
H    -3.650000000     2.603000000     1.379000000
O     0.317000000     0.561000000    -4.225000000
H    -0.374000000     0.049000000    -3.804000000
H     1.007000000    -0.075000000    -4.412000000
O    -2.008000000    -4.430000000    -4.974000000
H    -2.717000000    -4.855000000    -4.492000000
H    -1.629000000    -3.813000000    -4.349000000
O     1.573000000     4.432000000    -1.873000000
H     2.013000000     4.023000000    -2.618000000
H     1.849000000     3.913000000    -1.117000000
O    -2.517000000     1.029000000     3.773000000
H    -2.608000000     1.788000000     3.198000000
H    -3.027000000     1.255000000     4.551000000
O    -1.359000000     4.790000000     0.043000000
H    -1.389000000     4.419000000    -0.838000000
H    -0.745000000     5.522000000    -0.026000000
O     0.195000000    -3.448000000     3.779000000
H    -0.129000000    -2.602000000     3.470000000
H    -0.479000000    -4.074000000     3.515000000
O    -2.165000000    -3.090000000     1.510000000
H    -2.104000000    -2.187000000     1.199000000
H    -2.787000000    -3.052000000     2.237000000
O    -4.758000000     1.858000000     0.410000000
H    -5.444000000     1.206000000     0.267000000
H    -4.312000000     1.924000000    -0.434000000
O     0.937000000     3.393000000     2.804000000
H     1.338000000     3.318000000     1.938000000
H     1.262000000     2.633000000     3.285000000
O    -4.917000000    -1.362000000     2.378000000
H    -4.127000000    -1.154000000     2.876000000
H    -5.447000000    -0.566000000     2.423000000
O    -4.854000000    -3.708000000    -1.918000000
H    -5.042000000    -4.005000000    -2.809000000
H    -4.935000000    -2.755000000    -1.961000000
O     5.092000000     3.565000000    -1.593000000
H     4.309000000     3.093000000    -1.312000000
H     5.627000000     3.635000000    -0.802000000
O    -1.730000000     4.573000000     3.570000000
H    -0.838000000     4.233000000     3.648000000
H    -2.047000000     4.225000000     2.737000000
O     2.227000000    -1.172000000    -5.110000000
H     2.609000000    -1.946000000    -5.524000000
H     2.921000000    -0.837000000    -4.543000000
O     4.329000000    -0.050000000    -3.709000000
H     5.125000000    -0.092000000    -4.240000000
H     4.637000000     0.185000000    -2.834000000
O     3.863000000    -3.295000000     0.751000000
H     3.053000000    -3.778000000     0.913000000
H     4.517000000    -3.733000000     1.295000000
O    -2.996000000    -3.046000000     4.439000000
H    -2.656000000    -2.726000000     5.275000000
H    -3.935000000    -3.156000000     4.590000000
O     4.193000000     7.014000000    -0.823000000
H     3.808000000     6.474000000    -0.132000000
H     3.492000000     7.112000000    -1.468000000
O    -6.287000000    -3.843000000     2.288000000
H    -5.566000000    -3.215000000     2.258000000
H    -6.957000000    -3.413000000     2.819000000
O     4.345000000     2.833000000     2.974000000
H     3.934000000     2.767000000     2.112000000
H     5.278000000     2.943000000     2.786000000
O     4.495000000    -3.338000000    -2.052000000
H     4.285000000    -3.785000000    -1.232000000
H     4.497000000    -2.409000000    -1.825000000
O     1.197000000     0.506000000     4.709000000
H     1.959000000    -0.068000000     4.778000000
H     0.650000000     0.097000000     4.038000000
O     2.361000000     5.962000000     1.143000000
H     2.100000000     5.102000000     0.812000000
H     1.712000000     6.167000000     1.816000000
O    -0.561000000    -7.820000000    -0.519000000
H     0.365000000    -7.712000000    -0.737000000
H    -0.870000000    -6.932000000    -0.339000000
O    -0.992000000     4.020000000    -2.651000000
H    -1.114000000     4.661000000    -3.352000000
H    -0.106000000     4.185000000    -2.328000000
O    -4.987000000    -1.119000000    -2.648000000
H    -5.172000000    -0.719000000    -1.799000000
H    -4.819000000    -0.378000000    -3.231000000
O     4.202000000    -0.748000000     2.128000000
H     3.953000000    -1.450000000     1.526000000
H     3.902000000     0.053000000     1.700000000
O     1.491000000     7.133000000    -2.215000000
H     1.517000000     6.242000000    -1.866000000
H     1.069000000     7.648000000    -1.528000000
O     0.199000000     6.515000000     3.143000000
H     0.000000000     7.290000000     3.668000000
H    -0.552000000     5.937000000     3.274000000
O    -6.452000000    -5.163000000    -0.269000000
H    -6.111000000    -5.082000000     0.621000000
H    -5.810000000    -4.707000000    -0.814000000
