158
-3023.40591
C     1.417000000    -0.278000000     0.414000000
H     2.415000000    -0.559000000     0.742000000
C     0.460000000    -1.296000000     0.132000000
H     0.604000000    -2.360000000     0.298000000
C    -0.839000000    -0.883000000    -0.236000000
H    -1.634000000    -1.538000000    -0.396000000
C    -1.123000000     0.530000000    -0.471000000
H    -2.114000000     0.832000000    -0.802000000
C    -0.158000000     1.476000000    -0.160000000
H    -0.395000000     2.528000000    -0.302000000
C     1.076000000     1.092000000     0.348000000
C     2.071000000     2.179000000     0.753000000
O     3.001000000     1.840000000     1.492000000
O     2.055000000     3.306000000     0.286000000
O     4.493000000    -2.576000000     2.679000000
H     4.457000000    -1.630000000     2.539000000
H     5.423000000    -2.763000000     2.811000000
O    -1.888000000    -4.963000000     0.930000000
H    -2.112000000    -5.778000000     1.379000000
H    -2.732000000    -4.597000000     0.663000000
O     2.331000000     2.493000000     4.399000000
H     2.932000000     3.231000000     4.502000000
H     2.257000000     2.375000000     3.453000000
O    -5.850000000    -1.765000000    -1.240000000
H    -6.621000000    -1.218000000    -1.087000000
H    -5.621000000    -1.606000000    -2.156000000
O    -4.600000000     0.785000000    -2.313000000
H    -3.671000000     1.014000000    -2.286000000
H    -4.683000000     0.049000000    -1.707000000
O    -1.306000000     3.949000000     3.664000000
H    -0.772000000     4.113000000     2.887000000
H    -1.880000000     3.225000000     3.412000000
O     5.468000000     2.532000000     0.587000000
H     6.031000000     2.105000000     1.233000000
H     4.588000000     2.217000000     0.791000000
O     7.277000000     1.256000000     2.137000000
H     7.538000000     0.422000000     2.528000000
H     8.077000000     1.593000000     1.734000000
O    -4.064000000     3.288000000     2.224000000
H    -4.345000000     3.265000000     1.309000000
H    -3.670000000     2.428000000     2.374000000
O    -2.999000000    -0.603000000    -5.225000000
H    -2.052000000    -0.679000000    -5.347000000
H    -3.251000000     0.144000000    -5.768000000
O     1.614000000    -0.617000000    -2.552000000
H     1.127000000    -0.326000000    -1.781000000
H     2.025000000    -1.438000000    -2.279000000
O    -2.561000000     4.173000000    -2.008000000
H    -3.429000000     4.055000000    -1.623000000
H    -2.145000000     3.315000000    -1.929000000
O    -2.718000000    -3.848000000    -5.373000000
H    -3.481000000    -3.571000000    -5.880000000
H    -2.012000000    -3.908000000    -6.016000000
O     0.236000000    -4.763000000    -4.490000000
H     0.363000000    -4.051000000    -5.117000000
H     0.702000000    -4.476000000    -3.705000000
O     0.709000000     1.729000000    -3.969000000
H     0.875000000     0.891000000    -3.536000000
H     1.151000000     2.375000000    -3.419000000
O    -0.143000000     2.417000000     5.760000000
H    -0.540000000     3.089000000     5.205000000
H     0.763000000     2.361000000     5.457000000
O    -4.611000000    -3.926000000    -0.032000000
H    -4.656000000    -4.628000000    -0.681000000
H    -5.056000000    -3.187000000    -0.448000000
O    -3.438000000     0.576000000     2.530000000
H    -3.331000000    -0.003000000     3.284000000
H    -2.545000000     0.804000000     2.274000000
O    -7.107000000    -2.902000000     1.151000000
H    -7.455000000    -3.657000000     0.677000000
H    -7.065000000    -2.207000000     0.494000000
O     0.351000000     4.818000000     1.668000000
H     0.401000000     5.652000000     1.201000000
H     0.937000000     4.237000000     1.184000000
O    -3.038000000    -5.323000000    -2.885000000
H    -2.651000000    -4.964000000    -3.683000000
H    -3.952000000    -5.489000000    -3.116000000
O    -0.135000000    -4.499000000     3.148000000
H     0.077000000    -5.432000000     3.118000000
H    -0.471000000    -4.301000000     2.274000000
O     1.975000000     3.199000000    -2.370000000
H     2.018000000     3.130000000    -1.416000000
H     2.521000000     3.957000000    -2.579000000
O     0.644000000     5.190000000    -3.784000000
H     1.120000000     4.830000000    -3.036000000
H     0.809000000     6.131000000    -3.743000000
O    -0.669000000    -4.288000000    -1.295000000
H    -1.190000000    -4.562000000    -0.540000000
H    -1.250000000    -4.415000000    -2.046000000
O     6.366000000     4.554000000    -1.075000000
H     6.425000000     4.051000000    -1.888000000
H     6.410000000     3.895000000    -0.382000000
O    -0.675000000     1.071000000     3.038000000
H    -0.413000000     1.026000000     3.958000000
H    -0.252000000     0.314000000     2.632000000
O     3.983000000     4.921000000    -3.282000000
H     4.251000000     5.817000000    -3.078000000
H     4.803000000     4.457000000    -3.449000000
O    -3.194000000    -1.706000000     4.448000000
H    -2.820000000    -2.489000000     4.852000000
H    -3.695000000    -2.038000000     3.703000000
O     6.500000000     1.871000000     4.823000000
H     7.117000000     2.558000000     5.075000000
H     6.842000000     1.535000000     3.994000000
O     2.998000000     6.994000000    -1.662000000
H     3.289000000     6.251000000    -1.133000000
H     3.035000000     7.742000000    -1.065000000
O     3.868000000     5.144000000     0.098000000
H     3.244000000     4.419000000     0.143000000
H     4.682000000     4.740000000    -0.205000000
O     2.061000000    -3.682000000    -1.726000000
H     1.119000000    -3.710000000    -1.560000000
H     2.436000000    -4.279000000    -1.080000000
O    -2.513000000     7.059000000    -2.005000000
H    -2.439000000     6.105000000    -2.026000000
H    -2.970000000     7.282000000    -2.816000000
O     4.470000000     4.153000000     4.265000000
H     5.279000000     4.638000000     4.432000000
H     4.742000000     3.412000000     3.725000000
O     1.313000000    -2.012000000     4.116000000
H     2.183000000    -1.960000000     3.721000000
H     0.980000000    -2.869000000     3.849000000
O     6.887000000     1.404000000    -1.512000000
H     6.818000000     0.458000000    -1.384000000
H     6.440000000     1.782000000    -0.755000000
O     0.568000000    -6.965000000    -0.307000000
H     1.466000000    -7.237000000    -0.496000000
H     0.434000000    -6.188000000    -0.850000000
O    -5.104000000     2.820000000    -0.523000000
H    -5.089000000     2.139000000    -1.195000000
H    -6.014000000     3.117000000    -0.504000000
O     3.138000000     6.429000000     2.441000000
H     3.299000000     6.101000000     1.556000000
H     3.254000000     5.663000000     3.005000000
O     4.765000000    -3.041000000    -2.193000000
H     4.872000000    -3.391000000    -3.077000000
H     3.875000000    -3.289000000    -1.944000000
O    -4.881000000    -3.331000000     2.917000000
H    -4.501000000    -3.882000000     2.233000000
H    -5.540000000    -2.806000000     2.463000000
O     3.096000000    -4.560000000     1.339000000
H     3.532000000    -3.725000000     1.513000000
H     3.813000000    -5.183000000     1.221000000
O     3.632000000     0.035000000     3.373000000
H     3.127000000     0.559000000     3.996000000
H     3.608000000     0.541000000     2.561000000
O     0.380000000     7.571000000     0.455000000
H     1.201000000     8.063000000     0.457000000
H     0.022000000     7.706000000    -0.422000000
O    -5.644000000    -1.201000000    -4.566000000
H    -5.558000000    -2.017000000    -5.058000000
H    -4.744000000    -0.950000000    -4.358000000
O    -2.388000000     6.183000000     2.274000000
H    -1.622000000     5.756000000     1.891000000
H    -2.712000000     5.558000000     2.923000000
O    -2.063000000     1.690000000    -3.307000000
H    -1.126000000     1.816000000    -3.454000000
H    -2.417000000     1.489000000    -4.173000000
