158
-3002.81161
C     1.304000000    -0.615000000     0.427000000
H     2.105000000    -1.138000000     0.943000000
C     0.183000000    -1.305000000     0.039000000
H     0.080000000    -2.371000000     0.222000000
C    -0.929000000    -0.599000000    -0.443000000
H    -1.912000000    -1.059000000    -0.636000000
C    -0.940000000     0.771000000    -0.562000000
H    -1.837000000     1.296000000    -0.878000000
C     0.144000000     1.481000000    -0.085000000
H     0.119000000     2.547000000    -0.294000000
C     1.307000000     0.782000000     0.334000000
C     2.332000000     1.517000000     1.101000000
O     3.385000000     1.011000000     1.504000000
O     2.121000000     2.686000000     1.286000000
O    -2.679000000    -3.955000000    -0.680000000
H    -2.393000000    -4.716000000    -0.175000000
H    -3.365000000    -3.556000000    -0.145000000
O    -3.613000000     1.458000000    -2.936000000
H    -3.637000000     1.952000000    -2.116000000
H    -3.905000000     0.579000000    -2.694000000
O     4.101000000     5.001000000    -2.148000000
H     4.684000000     4.860000000    -1.401000000
H     4.071000000     5.952000000    -2.252000000
O     4.879000000     0.295000000     3.814000000
H     4.368000000     0.302000000     3.005000000
H     5.209000000    -0.601000000     3.882000000
O    -0.647000000     4.671000000    -4.455000000
H     0.219000000     4.485000000    -4.092000000
H    -1.104000000     3.830000000    -4.428000000
O    -2.241000000    -3.780000000    -3.525000000
H    -2.419000000    -2.867000000    -3.299000000
H    -2.290000000    -4.246000000    -2.691000000
O     1.000000000    -3.294000000     4.918000000
H     1.062000000    -2.339000000     4.889000000
H     0.900000000    -3.555000000     4.003000000
O    -1.576000000    -0.106000000     2.410000000
H    -0.902000000    -0.393000000     1.794000000
H    -1.853000000     0.749000000     2.080000000
O     7.964000000     0.342000000     1.208000000
H     7.044000000     0.120000000     1.066000000
H     8.432000000    -0.125000000     0.515000000
O     0.361000000    -4.053000000     2.271000000
H     0.351000000    -4.831000000     1.714000000
H    -0.563000000    -3.827000000     2.383000000
O    -1.810000000     2.208000000    -4.602000000
H    -2.472000000     1.925000000    -3.971000000
H    -1.569000000     1.409000000    -5.071000000
O     1.356000000     0.387000000    -3.216000000
H     0.711000000     0.633000000    -2.553000000
H     1.219000000    -0.551000000    -3.348000000
O     2.969000000    -4.028000000     2.422000000
H     3.151000000    -4.634000000     1.704000000
H     2.055000000    -4.196000000     2.652000000
O     6.025000000     3.831000000     0.150000000
H     5.440000000     3.197000000     0.565000000
H     6.755000000     3.920000000     0.763000000
O     0.577000000    -6.342000000     0.499000000
H     0.403000000    -7.216000000     0.847000000
H     0.409000000    -6.420000000    -0.440000000
O    -5.568000000     3.275000000    -4.432000000
H    -6.263000000     2.916000000    -3.881000000
H    -4.757000000     2.980000000    -4.017000000
O     2.047000000     4.041000000    -4.163000000
H     2.757000000     4.683000000    -4.184000000
H     2.459000000     3.239000000    -3.843000000
O    -0.510000000    -4.672000000    -5.478000000
H    -0.315000000    -3.938000000    -6.062000000
H    -1.078000000    -4.297000000    -4.805000000
O     0.061000000    -2.185000000    -2.799000000
H    -0.450000000    -2.897000000    -3.185000000
H    -0.255000000    -2.126000000    -1.898000000
O     2.179000000     4.969000000     0.094000000
H     2.557000000     4.710000000    -0.747000000
H     2.232000000     4.181000000     0.634000000
O     0.397000000     4.793000000     5.024000000
H     0.513000000     3.922000000     5.404000000
H     0.167000000     4.626000000     4.110000000
O    -4.574000000     3.265000000    -0.548000000
H    -4.200000000     4.118000000    -0.769000000
H    -5.518000000     3.381000000    -0.659000000
O     0.037000000    -0.507000000     4.930000000
H    -0.624000000    -0.601000000     5.616000000
H    -0.412000000    -0.769000000     4.127000000
O    -2.297000000    -3.443000000     3.404000000
H    -2.274000000    -3.605000000     4.347000000
H    -2.911000000    -2.716000000     3.300000000
O    -5.131000000     0.516000000    -0.452000000
H    -6.056000000     0.669000000    -0.260000000
H    -4.736000000     1.388000000    -0.438000000
O     0.246000000     4.307000000     2.406000000
H     1.103000000     3.936000000     2.196000000
H    -0.359000000     3.568000000     2.335000000
O    -4.030000000    -1.203000000     3.299000000
H    -3.722000000    -1.356000000     4.192000000
H    -3.383000000    -0.609000000     2.920000000
O    -4.596000000    -1.149000000    -2.932000000
H    -4.910000000    -2.053000000    -2.950000000
H    -5.081000000    -0.713000000    -3.633000000
O     5.452000000    -0.066000000     0.269000000
H     5.412000000    -1.006000000     0.448000000
H     4.639000000     0.282000000     0.634000000
O    -4.905000000    -2.252000000     0.155000000
H    -5.005000000    -1.329000000    -0.079000000
H    -5.478000000    -2.370000000     0.913000000
O    -0.496000000     6.832000000     2.413000000
H    -0.227000000     5.938000000     2.202000000
H    -1.055000000     7.094000000     1.681000000
O     3.882000000     1.663000000    -3.912000000
H     3.172000000     1.030000000    -3.808000000
H     4.466000000     1.492000000    -3.174000000
O     5.706000000     4.198000000     4.940000000
H     5.210000000     4.257000000     4.123000000
H     5.226000000     3.560000000     5.467000000
O     5.612000000    -2.560000000     1.334000000
H     4.776000000    -2.971000000     1.552000000
H     6.168000000    -2.731000000     2.094000000
O    -6.494000000    -1.407000000     2.366000000
H    -6.960000000    -1.994000000     2.961000000
H    -5.584000000    -1.439000000     2.662000000
O     2.235000000    -4.004000000    -3.561000000
H     2.409000000    -3.464000000    -4.332000000
H     1.559000000    -3.526000000    -3.081000000
O     4.123000000     4.321000000     2.463000000
H     3.447000000     4.989000000     2.346000000
H     3.745000000     3.529000000     2.080000000
O     5.778000000     1.017000000    -2.304000000
H     6.699000000     1.278000000    -2.323000000
H     5.665000000     0.601000000    -1.450000000
O    -2.013000000     2.656000000     2.979000000
H    -2.794000000     3.087000000     2.633000000
H    -2.308000000     2.242000000     3.791000000
O     1.431000000     2.013000000     4.301000000
H     1.494000000     2.257000000     3.378000000
H     0.786000000     1.305000000     4.319000000
O     5.240000000     6.673000000     1.235000000
H     4.382000000     7.065000000     1.396000000
H     5.127000000     5.750000000     1.462000000
O     3.996000000     2.093000000     5.603000000
H     4.234000000     1.461000000     4.924000000
H     3.041000000     2.134000000     5.567000000
O     7.872000000     0.981000000     4.832000000
H     6.982000000     1.141000000     4.517000000
H     8.393000000     0.878000000     4.036000000
O    -3.871000000    -5.627000000     3.010000000
H    -3.100000000    -6.157000000     2.809000000
H    -3.546000000    -4.727000000     3.028000000
O     1.240000000     7.447000000    -1.537000000
H     1.354000000     6.742000000    -0.901000000
H     2.105000000     7.852000000    -1.605000000
O     3.504000000    -5.713000000     0.414000000
H     3.884000000    -6.545000000     0.698000000
H     2.559000000    -5.865000000     0.426000000
O     2.718000000     6.868000000     2.771000000
H     3.001000000     7.399000000     3.516000000
H     1.765000000     6.836000000     2.848000000
O    -5.773000000    -3.894000000    -1.962000000
H    -5.456000000    -3.332000000    -1.255000000
H    -6.718000000    -3.743000000    -1.983000000
