158
-3048.52806
C     0.190000000    -0.976000000     1.096000000
H     0.501000000    -1.716000000     1.829000000
C     0.826000000    -0.962000000    -0.163000000
H     1.523000000    -1.722000000    -0.509000000
C     0.552000000    -0.022000000    -1.111000000
H     1.097000000    -0.042000000    -2.076000000
C    -0.336000000     0.999000000    -0.781000000
H    -0.530000000     1.818000000    -1.469000000
C    -0.989000000     0.992000000     0.448000000
H    -1.597000000     1.843000000     0.741000000
C    -0.671000000     0.034000000     1.475000000
C    -1.348000000     0.155000000     2.841000000
O    -1.671000000     1.284000000     3.283000000
O    -1.430000000    -0.821000000     3.550000000
O     0.697000000    -2.154000000     4.912000000
H     1.250000000    -1.571000000     4.391000000
H    -0.193000000    -1.973000000     4.609000000
O    -0.561000000     0.676000000    -5.408000000
H     0.101000000     0.023000000    -5.635000000
H    -0.870000000     1.006000000    -6.252000000
O    -1.760000000     1.605000000     8.533000000
H    -0.999000000     1.049000000     8.704000000
H    -2.081000000     1.315000000     7.679000000
O    -0.558000000     5.349000000    -2.733000000
H    -0.335000000     4.501000000    -3.116000000
H     0.246000000     5.863000000    -2.804000000
O     0.167000000     2.868000000    -3.770000000
H     0.020000000     1.994000000    -4.133000000
H     0.933000000     2.767000000    -3.205000000
O    -3.429000000    -1.369000000     0.631000000
H    -4.126000000    -1.999000000     0.813000000
H    -2.807000000    -1.485000000     1.349000000
O     3.605000000    -4.282000000     0.422000000
H     3.198000000    -5.121000000     0.204000000
H     3.209000000    -4.033000000     1.257000000
O     2.242000000     3.977000000     0.278000000
H     1.653000000     3.619000000     0.942000000
H     2.195000000     4.925000000     0.402000000
O     3.867000000    -3.835000000    -5.318000000
H     4.617000000    -4.426000000    -5.381000000
H     3.463000000    -4.050000000    -4.477000000
O     2.648000000    -3.534000000     3.031000000
H     1.789000000    -3.830000000     3.332000000
H     2.634000000    -2.586000000     3.161000000
O    -4.882000000     2.123000000    -4.372000000
H    -4.963000000     2.554000000    -5.223000000
H    -3.940000000     2.007000000    -4.250000000
O     4.442000000     2.589000000    -4.921000000
H     3.605000000     2.270000000    -5.260000000
H     4.663000000     1.977000000    -4.218000000
O    -2.145000000    -0.540000000     6.157000000
H    -1.935000000    -1.410000000     6.497000000
H    -2.307000000    -0.679000000     5.224000000
O    -1.969000000    -1.508000000    -1.933000000
H    -2.402000000    -1.413000000    -1.085000000
H    -1.035000000    -1.461000000    -1.733000000
O     5.430000000    -1.860000000     0.300000000
H     4.477000000    -1.921000000     0.244000000
H     5.590000000    -1.075000000     0.824000000
O     2.366000000     3.197000000     5.430000000
H     1.981000000     4.044000000     5.205000000
H     1.620000000     2.600000000     5.480000000
O    -5.406000000    -3.139000000     2.138000000
H    -5.146000000    -4.048000000     1.990000000
H    -4.831000000    -2.836000000     2.840000000
O     0.171000000    -3.309000000    -4.743000000
H     0.315000000    -3.983000000    -4.079000000
H    -0.638000000    -3.574000000    -5.181000000
O     2.313000000     2.622000000    -2.175000000
H     2.728000000     1.785000000    -1.965000000
H     2.454000000     3.161000000    -1.397000000
O    -2.747000000     0.030000000    -3.958000000
H    -1.979000000     0.330000000    -4.444000000
H    -2.387000000    -0.487000000    -3.237000000
O    -2.710000000     2.647000000     5.336000000
H    -3.057000000     1.942000000     5.882000000
H    -2.449000000     2.215000000     4.523000000
O     4.517000000    -1.667000000    -3.149000000
H     4.694000000    -2.285000000    -2.439000000
H     4.060000000    -2.186000000    -3.810000000
O    -4.070000000     4.785000000     6.435000000
H    -3.487000000     4.289000000     5.860000000
H    -3.484000000     5.340000000     6.950000000
O     0.759000000    -5.237000000    -2.978000000
H     1.001000000    -6.157000000    -3.080000000
H     0.295000000    -5.202000000    -2.141000000
O    -2.656000000    -3.009000000     3.012000000
H    -2.641000000    -2.141000000     3.415000000
H    -1.781000000    -3.362000000     3.172000000
O     3.462000000    -4.355000000    -2.662000000
H     3.577000000    -4.470000000    -1.719000000
H     2.513000000    -4.353000000    -2.789000000
O     0.247000000     1.270000000     5.457000000
H    -0.170000000     1.762000000     4.749000000
H    -0.309000000     0.500000000     5.573000000
O     1.305000000    -1.341000000    -6.057000000
H     0.861000000    -1.993000000    -5.516000000
H     1.894000000    -1.851000000    -6.613000000
O    -3.594000000     5.516000000    -3.273000000
H    -3.235000000     6.403000000    -3.229000000
H    -2.883000000     4.955000000    -2.963000000
O    -4.784000000     4.848000000     2.326000000
H    -4.750000000     4.552000000     3.236000000
H    -3.959000000     5.314000000     2.194000000
O     1.722000000     4.826000000    -5.464000000
H     2.288000000     5.158000000    -4.767000000
H     1.229000000     4.115000000    -5.054000000
O     1.165000000    -3.050000000     7.353000000
H     0.289000000    -2.707000000     7.528000000
H     1.398000000    -2.687000000     6.498000000
O     5.924000000     0.700000000    -3.119000000
H     5.288000000    -0.004000000    -3.242000000
H     6.620000000     0.306000000    -2.592000000
O    -5.438000000    -1.598000000     4.519000000
H    -6.378000000    -1.657000000     4.688000000
H    -5.344000000    -0.837000000     3.946000000
O    -6.128000000     0.318000000     0.272000000
H    -6.075000000     1.272000000     0.223000000
H    -5.439000000     0.070000000     0.888000000
O     2.326000000     1.478000000    -6.077000000
H     1.978000000     0.625000000    -5.819000000
H     1.658000000     1.845000000    -6.656000000
O    -3.563000000    -3.367000000     5.669000000
H    -4.149000000    -2.744000000     5.239000000
H    -3.173000000    -3.865000000     4.950000000
O     2.738000000     0.126000000     6.124000000
H     2.830000000     0.008000000     7.069000000
H     2.019000000     0.751000000     6.029000000
O    -4.846000000     0.623000000     6.354000000
H    -4.054000000     0.152000000     6.094000000
H    -5.267000000     0.049000000     6.994000000
O     0.355000000     3.295000000     2.545000000
H    -0.191000000     2.531000000     2.356000000
H    -0.210000000     3.870000000     3.061000000
O    -2.240000000    -4.835000000     0.694000000
H    -2.916000000    -4.708000000     0.029000000
H    -2.626000000    -4.486000000     1.498000000
O    -4.955000000     1.111000000     3.433000000
H    -4.072000000     1.323000000     3.128000000
H    -5.216000000     1.869000000     3.957000000
O     2.741000000    -0.696000000     3.478000000
H     2.187000000    -0.134000000     2.937000000
H     2.848000000    -0.210000000     4.296000000
O     0.155000000    -4.412000000    -0.299000000
H     0.348000000    -3.554000000     0.078000000
H    -0.703000000    -4.642000000     0.056000000
O     5.179000000     3.093000000    -1.475000000
H     5.580000000     2.356000000    -1.936000000
H     5.875000000     3.430000000    -0.912000000
O    -0.251000000    -4.512000000     3.211000000
H     0.053000000    -5.164000000     2.580000000
H    -0.697000000    -5.023000000     3.887000000
O    -2.974000000    -3.916000000    -3.175000000
H    -2.688000000    -3.063000000    -2.848000000
H    -2.873000000    -3.855000000    -4.125000000
O    -0.941000000     4.680000000     4.893000000
H    -1.440000000     3.889000000     5.100000000
H    -0.640000000     5.002000000     5.743000000
