158
-3042.99201
C     1.201000000    -0.432000000    -0.854000000
H     2.034000000    -0.504000000    -1.548000000
C    -0.134000000    -0.265000000    -1.326000000
H    -0.418000000    -0.444000000    -2.360000000
C    -1.125000000     0.064000000    -0.427000000
H    -2.169000000     0.162000000    -0.762000000
C    -0.816000000     0.315000000     0.922000000
H    -1.630000000     0.607000000     1.580000000
C     0.472000000     0.196000000     1.368000000
H     0.659000000     0.202000000     2.439000000
C     1.495000000    -0.205000000     0.511000000
C     2.924000000    -0.214000000     0.953000000
O     3.852000000    -0.525000000     0.215000000
O     3.174000000     0.055000000     2.109000000
O     6.134000000    -4.317000000     2.370000000
H     6.599000000    -3.795000000     3.023000000
H     5.224000000    -4.025000000     2.434000000
O    -0.719000000    -3.063000000     0.633000000
H    -1.238000000    -2.293000000     0.400000000
H    -1.360000000    -3.770000000     0.708000000
O     2.180000000     2.704000000    -2.502000000
H     2.823000000     2.257000000    -1.952000000
H     1.479000000     2.950000000    -1.899000000
O    -4.831000000     1.068000000     2.872000000
H    -4.058000000     0.693000000     3.294000000
H    -4.612000000     1.083000000     1.941000000
O    -6.259000000     0.613000000    -4.499000000
H    -6.816000000     1.330000000    -4.194000000
H    -5.366000000     0.935000000    -4.377000000
O     3.917000000    -2.518000000     2.360000000
H     3.968000000    -1.569000000     2.475000000
H     3.243000000    -2.642000000     1.691000000
O    -4.420000000     1.543000000     0.293000000
H    -4.068000000     2.310000000    -0.158000000
H    -4.657000000     0.938000000    -0.410000000
O    -0.597000000    -2.536000000     6.365000000
H    -0.580000000    -2.552000000     5.408000000
H     0.302000000    -2.327000000     6.617000000
O     6.886000000    -3.813000000    -0.283000000
H     6.874000000    -4.611000000    -0.811000000
H     6.581000000    -4.092000000     0.581000000
O     6.762000000     2.024000000     5.115000000
H     6.644000000     1.122000000     4.819000000
H     7.691000000     2.085000000     5.336000000
O    -6.643000000    -1.873000000    -3.146000000
H    -6.972000000    -1.536000000    -2.312000000
H    -6.890000000    -1.207000000    -3.787000000
O    -0.338000000    -1.906000000     3.324000000
H     0.615000000    -1.841000000     3.394000000
H    -0.485000000    -2.423000000     2.532000000
O    -3.501000000     1.078000000    -3.518000000
H    -2.564000000     1.272000000    -3.514000000
H    -3.670000000     0.697000000    -2.656000000
O     5.103000000     1.774000000     1.614000000
H     4.385000000     1.142000000     1.655000000
H     4.770000000     2.545000000     2.073000000
O    -1.486000000    -1.320000000    -5.805000000
H    -1.622000000    -1.706000000    -6.671000000
H    -2.072000000    -1.811000000    -5.229000000
O    -4.644000000    -0.754000000    -1.449000000
H    -4.271000000    -1.624000000    -1.310000000
H    -5.297000000    -0.880000000    -2.138000000
O     0.089000000     2.799000000    -0.941000000
H    -0.210000000     1.891000000    -0.891000000
H    -0.557000000     3.291000000    -0.434000000
O     3.801000000     4.167000000     3.159000000
H     3.017000000     4.699000000     3.296000000
H     3.599000000     3.331000000     3.579000000
O     6.346000000    -0.848000000     4.775000000
H     6.639000000    -0.688000000     5.672000000
H     6.963000000    -1.496000000     4.434000000
O     3.670000000    -0.706000000    -5.791000000
H     4.429000000    -1.288000000    -5.812000000
H     3.980000000     0.075000000    -5.333000000
O    -4.132000000     3.556000000    -2.000000000
H    -3.793000000     3.219000000    -2.829000000
H    -4.174000000     4.504000000    -2.127000000
O     2.483000000    -3.483000000    -1.977000000
H     1.896000000    -3.003000000    -2.563000000
H     3.340000000    -3.079000000    -2.114000000
O     3.849000000     1.547000000    -4.361000000
H     3.029000000     1.854000000    -3.973000000
H     4.305000000     1.110000000    -3.642000000
O     1.028000000     4.614000000     2.010000000
H     1.092000000     4.426000000     2.947000000
H     0.401000000     3.971000000     1.680000000
O     4.156000000     1.406000000    -1.446000000
H     5.034000000     1.682000000    -1.181000000
H     3.968000000     0.645000000    -0.897000000
O     2.004000000    -3.605000000     0.633000000
H     2.460000000    -3.376000000    -0.177000000
H     1.082000000    -3.431000000     0.447000000
O     1.118000000     4.014000000     4.686000000
H     1.394000000     4.561000000     5.421000000
H     1.544000000     3.170000000     4.842000000
O     2.423000000    -3.041000000     4.603000000
H     2.448000000    -2.449000000     5.355000000
H     2.910000000    -2.580000000     3.919000000
O     6.845000000    -2.639000000    -3.525000000
H     6.401000000    -3.392000000    -3.915000000
H     6.268000000    -2.364000000    -2.812000000
O    -0.924000000     2.258000000    -3.568000000
H    -0.079000000     2.187000000    -3.125000000
H    -0.755000000     1.948000000    -4.458000000
O    -3.517000000    -3.139000000    -0.635000000
H    -2.786000000    -3.672000000    -0.946000000
H    -4.183000000    -3.775000000    -0.373000000
O    -4.396000000    -2.043000000     2.148000000
H    -4.226000000    -2.329000000     1.250000000
H    -5.343000000    -1.907000000     2.180000000
O    -6.666000000     2.060000000    -1.875000000
H    -6.732000000     2.545000000    -1.052000000
H    -5.738000000     2.102000000    -2.105000000
O    -3.702000000    -2.703000000    -4.491000000
H    -4.603000000    -2.423000000    -4.327000000
H    -3.737000000    -3.659000000    -4.451000000
O    -2.008000000     4.610000000    -3.908000000
H    -1.972000000     5.230000000    -3.180000000
H    -1.628000000     3.805000000    -3.556000000
O    -1.691000000     4.357000000     0.793000000
H    -1.836000000     5.048000000     0.147000000
H    -2.513000000     4.309000000     1.281000000
O    -7.176000000     2.406000000     2.665000000
H    -6.413000000     1.847000000     2.814000000
H    -7.053000000     3.143000000     3.264000000
O     5.050000000    -2.335000000    -1.473000000
H     4.667000000    -1.743000000    -0.825000000
H     5.640000000    -2.894000000    -0.968000000
O     2.881000000     1.842000000     3.998000000
H     3.031000000     1.193000000     3.311000000
H     3.220000000     1.432000000     4.793000000
O    -2.157000000     2.175000000     6.544000000
H    -1.453000000     1.775000000     7.055000000
H    -2.085000000     1.770000000     5.679000000
O    -7.705000000    -1.342000000    -0.766000000
H    -6.859000000    -1.431000000    -0.328000000
H    -8.312000000    -1.096000000    -0.068000000
O     4.108000000     0.261000000     5.692000000
H     4.709000000    -0.274000000     5.173000000
H     4.563000000     0.392000000     6.525000000
O     6.691000000    -0.100000000     0.059000000
H     5.956000000    -0.707000000    -0.033000000
H     6.476000000     0.422000000     0.832000000
O     6.848000000     1.849000000    -1.825000000
H     6.992000000     1.456000000    -0.964000000
H     7.340000000     1.292000000    -2.428000000
O    -3.874000000    -2.397000000     4.735000000
H    -4.763000000    -2.553000000     5.052000000
H    -3.971000000    -2.302000000     3.788000000
O    -0.535000000     1.400000000    -5.977000000
H    -1.011000000     1.972000000    -6.579000000
H    -0.977000000     0.554000000    -6.050000000
O    -2.246000000    -0.262000000     4.431000000
H    -1.551000000    -0.735000000     3.974000000
H    -2.876000000    -0.939000000     4.677000000
O     1.108000000    -1.246000000    -4.251000000
H     0.408000000    -1.014000000    -4.861000000
H     1.881000000    -0.794000000    -4.590000000
