158
-3034.54650
C     1.478000000     0.039000000    -0.074000000
H     2.546000000    -0.088000000    -0.232000000
C     0.637000000    -0.160000000    -1.159000000
H     0.974000000    -0.396000000    -2.165000000
C    -0.747000000    -0.238000000    -0.977000000
H    -1.416000000    -0.386000000    -1.824000000
C    -1.266000000    -0.090000000     0.336000000
H    -2.331000000    -0.046000000     0.549000000
C    -0.426000000     0.096000000     1.370000000
H    -0.840000000     0.207000000     2.369000000
C     0.928000000     0.213000000     1.243000000
C     1.843000000     0.617000000     2.354000000
O     3.050000000     0.507000000     2.201000000
O     1.316000000     1.186000000     3.325000000
O     5.615000000    -3.943000000     2.869000000
H     4.995000000    -4.264000000     3.524000000
H     5.618000000    -2.993000000     2.987000000
O    -3.093000000     1.823000000     2.790000000
H    -3.622000000     1.297000000     3.391000000
H    -2.632000000     1.180000000     2.252000000
O    -3.710000000    -2.573000000    -6.340000000
H    -2.871000000    -2.764000000    -5.922000000
H    -3.901000000    -3.354000000    -6.861000000
O     0.314000000    -2.548000000     3.049000000
H    -0.105000000    -1.876000000     3.585000000
H    -0.115000000    -2.477000000     2.196000000
O    -2.354000000    -3.813000000    -1.891000000
H    -1.875000000    -3.448000000    -2.635000000
H    -3.240000000    -3.463000000    -1.982000000
O     4.283000000     4.962000000     5.693000000
H     3.740000000     4.279000000     5.298000000
H     4.565000000     5.501000000     4.954000000
O    -0.261000000    -2.623000000     6.718000000
H    -0.283000000    -1.903000000     6.088000000
H    -0.540000000    -2.227000000     7.544000000
O    -1.560000000     4.727000000     1.227000000
H    -2.198000000     4.088000000     0.910000000
H    -0.937000000     4.822000000     0.507000000
O    -4.530000000     0.112000000     4.179000000
H    -4.370000000    -0.748000000     4.568000000
H    -5.477000000     0.233000000     4.247000000
O     4.510000000     2.172000000     0.841000000
H     3.989000000     1.577000000     1.381000000
H     5.350000000     1.726000000     0.736000000
O    -3.183000000     3.026000000    -1.072000000
H    -2.516000000     2.908000000    -1.748000000
H    -3.262000000     3.975000000    -0.975000000
O    -0.438000000     2.581000000    -2.577000000
H    -0.299000000     1.715000000    -2.193000000
H     0.386000000     2.779000000    -3.022000000
O     1.959000000     1.899000000    -6.070000000
H     2.201000000     2.243000000    -5.210000000
H     1.424000000     2.589000000    -6.462000000
O    -6.003000000    -0.437000000    -1.021000000
H    -5.828000000     0.350000000    -0.505000000
H    -6.033000000    -0.128000000    -1.927000000
O     6.470000000     1.829000000     4.204000000
H     5.626000000     1.378000000     4.205000000
H     7.076000000     1.202000000     3.807000000
O     3.087000000    -1.407000000    -3.988000000
H     3.123000000    -2.312000000    -3.679000000
H     2.853000000    -1.479000000    -4.913000000
O     6.749000000     0.705000000     0.455000000
H     7.606000000     1.096000000     0.621000000
H     6.944000000    -0.128000000     0.025000000
O    -2.543000000     3.174000000    -5.116000000
H    -2.081000000     3.811000000    -4.572000000
H    -3.132000000     3.703000000    -5.655000000
O    -5.389000000     1.895000000     0.164000000
H    -6.077000000     2.528000000    -0.042000000
H    -4.624000000     2.208000000    -0.318000000
O     4.879000000    -3.249000000     0.197000000
H     3.949000000    -3.180000000     0.412000000
H     5.310000000    -3.396000000     1.040000000
O     4.470000000     2.533000000    -1.923000000
H     4.673000000     1.598000000    -1.950000000
H     4.202000000     2.695000000    -1.019000000
O     3.359000000     4.613000000     1.226000000
H     2.497000000     4.278000000     1.473000000
H     3.900000000     3.830000000     1.123000000
O    -0.701000000    -2.650000000    -3.756000000
H    -0.346000000    -1.857000000    -4.157000000
H    -0.713000000    -3.293000000    -4.466000000
O     1.077000000     3.615000000     2.056000000
H     1.117000000     2.761000000     2.487000000
H     0.216000000     3.961000000     2.291000000
O     1.296000000    -3.745000000    -2.345000000
H     0.550000000    -3.318000000    -2.767000000
H     1.273000000    -4.645000000    -2.671000000
O     1.167000000     3.711000000     7.355000000
H     0.340000000     4.187000000     7.274000000
H     1.326000000     3.356000000     6.481000000
O    -3.790000000    -3.424000000     2.238000000
H    -4.497000000    -2.791000000     2.366000000
H    -3.512000000    -3.655000000     3.124000000
O    -6.446000000    -1.744000000     1.938000000
H    -6.552000000    -1.902000000     1.000000000
H    -6.480000000    -0.792000000     2.026000000
O    -0.491000000    -0.279000000     4.829000000
H    -1.035000000     0.375000000     5.267000000
H     0.184000000     0.232000000     4.381000000
O    -2.532000000     0.521000000    -4.265000000
H    -1.641000000     0.484000000    -3.916000000
H    -2.633000000     1.424000000    -4.567000000
O    -4.859000000    -0.683000000    -4.258000000
H    -4.098000000    -0.102000000    -4.276000000
H    -4.743000000    -1.252000000    -5.019000000
O     0.373000000     0.103000000    -4.392000000
H     1.302000000    -0.107000000    -4.486000000
H     0.132000000     0.506000000    -5.226000000
O    -5.438000000    -3.021000000    -1.559000000
H    -5.481000000    -2.065000000    -1.539000000
H    -6.319000000    -3.294000000    -1.815000000
O    -0.863000000    -1.749000000    -7.350000000
H    -0.011000000    -2.088000000    -7.075000000
H    -0.872000000    -0.843000000    -7.041000000
O     0.310000000     4.925000000    -0.910000000
H     0.141000000     4.150000000    -1.446000000
H     1.093000000     5.317000000    -1.295000000
O     5.106000000    -1.310000000     2.708000000
H     4.300000000    -0.863000000     2.451000000
H     5.769000000    -0.620000000     2.722000000
O     2.859000000     2.728000000     5.048000000
H     3.517000000     2.120000000     5.387000000
H     2.422000000     2.242000000     4.348000000
O     3.925000000     0.282000000     5.008000000
H     3.537000000    -0.488000000     5.422000000
H     3.625000000     0.243000000     4.100000000
O     5.382000000    -0.172000000    -2.994000000
H     5.743000000     0.289000000    -3.752000000
H     4.543000000    -0.517000000    -3.301000000
O    -2.031000000     2.102000000     5.486000000
H    -2.693000000     2.069000000     4.795000000
H    -1.735000000     3.012000000     5.491000000
O     2.026000000    -2.929000000     0.277000000
H     1.638000000    -2.054000000     0.258000000
H     1.758000000    -3.327000000    -0.550000000
O    -5.615000000     2.988000000     3.001000000
H    -4.718000000     2.695000000     2.840000000
H    -5.756000000     2.828000000     3.934000000
O     2.480000000     3.240000000    -3.758000000
H     3.163000000     3.197000000    -3.088000000
H     2.472000000     4.156000000    -4.035000000
O     6.858000000    -1.610000000    -1.098000000
H     6.180000000    -2.151000000    -0.693000000
H     6.410000000    -1.164000000    -1.817000000
O    -1.241000000     0.932000000    -6.779000000
H    -1.044000000     1.814000000    -6.465000000
H    -1.985000000     0.649000000    -6.247000000
O    -4.507000000    -5.021000000     0.115000000
H    -4.659000000    -4.419000000    -0.613000000
H    -4.121000000    -4.476000000     0.801000000
O    -1.327000000    -2.882000000     0.927000000
H    -1.097000000    -2.611000000     0.039000000
H    -2.284000000    -2.911000000     0.928000000
O     5.981000000     4.504000000     2.035000000
H     6.290000000     3.973000000     2.770000000
H     5.033000000     4.375000000     2.029000000
