158
-3037.45838
C     0.777000000    -0.940000000     0.878000000
H     1.241000000    -1.720000000     1.476000000
C    -0.295000000    -1.266000000     0.044000000
H    -0.583000000    -2.314000000     0.079000000
C    -0.933000000    -0.322000000    -0.798000000
H    -1.696000000    -0.669000000    -1.416000000
C    -0.511000000     1.019000000    -0.784000000
H    -1.024000000     1.739000000    -1.417000000
C     0.508000000     1.378000000     0.161000000
H     0.822000000     2.397000000     0.372000000
C     1.158000000     0.385000000     0.973000000
C     2.178000000     0.810000000     1.939000000
O     2.577000000    -0.052000000     2.744000000
O     2.524000000     1.977000000     2.066000000
O     7.019000000    -0.140000000     2.415000000
H     6.481000000    -0.923000000     2.303000000
H     6.415000000     0.588000000     2.271000000
O    -3.668000000    -3.946000000     3.591000000
H    -4.263000000    -3.197000000     3.551000000
H    -2.803000000    -3.557000000     3.720000000
O     6.339000000     3.830000000     4.520000000
H     5.467000000     3.723000000     4.140000000
H     6.488000000     3.022000000     5.010000000
O    -5.337000000    -5.219000000    -1.008000000
H    -4.550000000    -5.024000000    -0.498000000
H    -5.636000000    -6.064000000    -0.673000000
O    -4.820000000     0.579000000    -1.439000000
H    -4.135000000     0.958000000    -1.989000000
H    -4.551000000    -0.331000000    -1.314000000
O     2.333000000     2.235000000    -2.130000000
H     2.038000000     3.146000000    -2.110000000
H     2.988000000     2.211000000    -2.827000000
O    -3.693000000    -2.118000000    -6.231000000
H    -4.048000000    -2.165000000    -5.343000000
H    -4.465000000    -2.121000000    -6.798000000
O     2.162000000    -0.397000000    -4.961000000
H     2.127000000     0.541000000    -5.150000000
H     2.300000000    -0.446000000    -4.015000000
O    -4.309000000    -2.126000000    -0.358000000
H    -3.830000000    -2.744000000     0.195000000
H    -5.229000000    -2.272000000    -0.138000000
O    -0.125000000    -5.066000000     2.330000000
H    -0.769000000    -5.467000000     1.747000000
H     0.647000000    -4.932000000     1.780000000
O    -2.198000000    -6.221000000    -3.070000000
H    -2.480000000    -5.363000000    -2.755000000
H    -1.354000000    -6.367000000    -2.643000000
O    -7.636000000     0.576000000    -2.360000000
H    -7.560000000    -0.248000000    -1.880000000
H    -6.844000000     1.062000000    -2.130000000
O    -2.684000000    -3.463000000    -2.283000000
H    -3.371000000    -3.014000000    -1.789000000
H    -1.904000000    -2.923000000    -2.151000000
O     3.629000000     3.385000000     4.001000000
H     3.379000000     2.688000000     4.607000000
H     3.151000000     3.185000000     3.196000000
O    -1.330000000     0.565000000     3.224000000
H    -1.050000000     0.802000000     2.340000000
H    -2.286000000     0.598000000     3.189000000
O     5.512000000    -2.580000000     1.018000000
H     5.726000000    -3.513000000     1.045000000
H     5.745000000    -2.307000000     0.130000000
O     7.426000000     3.341000000     0.923000000
H     7.705000000     4.102000000     1.432000000
H     6.887000000     2.832000000     1.529000000
O    -5.736000000     2.591000000    -3.604000000
H    -4.883000000     2.473000000    -4.022000000
H    -5.544000000     2.603000000    -2.666000000
O    -3.338000000    -4.463000000     0.849000000
H    -2.710000000    -5.181000000     0.770000000
H    -3.624000000    -4.495000000     1.762000000
O     6.819000000     1.152000000     4.785000000
H     6.892000000     0.664000000     3.964000000
H     6.249000000     0.613000000     5.334000000
O    -3.116000000     1.546000000    -3.454000000
H    -2.243000000     1.504000000    -3.064000000
H    -3.024000000     1.099000000    -4.296000000
O    -0.176000000     4.025000000    -2.815000000
H    -0.935000000     3.897000000    -3.385000000
H     0.050000000     4.949000000    -2.922000000
O     5.174000000    -5.184000000     1.462000000
H     4.275000000    -4.975000000     1.210000000
H     5.490000000    -5.761000000     0.766000000
O     1.734000000    -0.276000000    -2.380000000
H     1.739000000     0.681000000    -2.402000000
H     1.192000000    -0.495000000    -1.623000000
O     4.255000000    -1.614000000    -2.481000000
H     3.304000000    -1.667000000    -2.580000000
H     4.536000000    -2.524000000    -2.383000000
O     4.196000000     0.822000000    -0.873000000
H     4.323000000    -0.032000000    -1.285000000
H     3.322000000     1.096000000    -1.154000000
O    -2.465000000     0.557000000    -5.928000000
H    -2.957000000     1.208000000    -6.430000000
H    -2.723000000    -0.283000000    -6.308000000
O     0.994000000     4.236000000     2.222000000
H     0.596000000     4.125000000     3.086000000
H     1.758000000     3.660000000     2.234000000
O    -4.800000000    -3.529000000    -4.181000000
H    -4.189000000    -3.287000000    -3.485000000
H    -5.100000000    -4.406000000    -3.943000000
O    -0.088000000    -2.562000000    -2.713000000
H     0.423000000    -1.808000000    -3.006000000
H    -0.052000000    -3.175000000    -3.447000000
O    -4.116000000     1.627000000     1.428000000
H    -4.531000000     1.309000000     0.627000000
H    -3.665000000     2.429000000     1.162000000
O    -2.320000000     3.501000000     1.361000000
H    -1.710000000     2.994000000     0.825000000
H    -1.760000000     3.983000000     1.970000000
O    -0.174000000    -0.518000000    -6.850000000
H     0.487000000    -0.920000000    -6.287000000
H    -0.868000000    -0.246000000    -6.249000000
O    -0.196000000     2.983000000     4.714000000
H    -0.432000000     2.055000000     4.727000000
H    -0.306000000     3.271000000     5.620000000
O     4.099000000     6.498000000    -0.638000000
H     4.840000000     6.844000000    -0.140000000
H     3.900000000     5.660000000    -0.221000000
O     5.239000000     1.624000000     1.647000000
H     4.435000000     1.753000000     2.150000000
H     4.938000000     1.323000000     0.789000000
O     0.507000000     6.050000000    -0.108000000
H     0.687000000     5.465000000     0.628000000
H     0.825000000     5.574000000    -0.875000000
O     4.194000000    -1.854000000     3.306000000
H     3.580000000    -1.162000000     3.059000000
H     4.548000000    -2.168000000     2.474000000
O     2.891000000     1.117000000     5.139000000
H     2.644000000     0.295000000     5.563000000
H     2.901000000     0.911000000     4.204000000
O     3.450000000     3.774000000     0.144000000
H     3.346000000     3.466000000     1.044000000
H     2.784000000     3.297000000    -0.351000000
O     0.966000000    -1.682000000     7.157000000
H     0.992000000    -1.412000000     6.239000000
H     1.818000000    -2.090000000     7.310000000
O     2.513000000    -5.231000000     0.736000000
H     2.713000000    -4.818000000    -0.104000000
H     2.848000000    -6.124000000     0.649000000
O     2.733000000    -4.414000000     3.870000000
H     3.431000000    -3.803000000     3.633000000
H     2.497000000    -4.839000000     3.046000000
O     2.201000000     5.087000000    -2.174000000
H     3.032000000     5.549000000    -2.063000000
H     1.760000000     5.555000000    -2.884000000
O     5.165000000    -1.227000000     5.560000000
H     4.786000000    -1.512000000     4.728000000
H     4.680000000    -1.716000000     6.224000000
O    -1.081000000    -3.391000000     4.262000000
H    -0.598000000    -4.027000000     3.735000000
H    -0.441000000    -2.706000000     4.457000000
O     0.644000000    -1.190000000     4.460000000
H    -0.135000000    -0.770000000     4.095000000
H     1.291000000    -1.148000000     3.756000000
O     0.910000000     2.173000000    -4.848000000
H     0.975000000     2.833000000    -4.157000000
H    -0.003000000     2.215000000    -5.133000000
