158
-3037.35422
C     1.505000000    -0.094000000    -0.182000000
H     2.566000000    -0.163000000    -0.410000000
C     0.559000000    -0.207000000    -1.211000000
H     0.877000000    -0.371000000    -2.237000000
C    -0.756000000    -0.188000000    -0.912000000
H    -1.496000000    -0.370000000    -1.681000000
C    -1.277000000     0.075000000     0.351000000
H    -2.320000000     0.168000000     0.643000000
C    -0.354000000     0.341000000     1.350000000
H    -0.712000000     0.613000000     2.339000000
C     1.032000000     0.216000000     1.112000000
C     1.945000000     0.376000000     2.305000000
O     3.158000000     0.314000000     2.089000000
O     1.521000000     0.499000000     3.458000000
O     5.351000000    -3.125000000     2.602000000
H     4.835000000    -2.995000000     3.398000000
H     5.497000000    -2.242000000     2.264000000
O     1.318000000    -3.024000000     7.309000000
H     1.049000000    -2.107000000     7.255000000
H     1.210000000    -3.358000000     6.418000000
O    -3.548000000     2.489000000     4.265000000
H    -3.580000000     1.972000000     5.070000000
H    -3.995000000     1.947000000     3.614000000
O    -1.600000000    -2.076000000    -5.129000000
H    -2.086000000    -2.729000000    -5.632000000
H    -1.215000000    -1.501000000    -5.792000000
O     3.901000000     0.752000000     7.479000000
H     3.132000000     0.182000000     7.511000000
H     3.858000000     1.163000000     6.615000000
O     1.490000000    -3.556000000     4.494000000
H     1.903000000    -3.329000000     3.661000000
H     0.620000000    -3.872000000     4.252000000
O    -0.412000000    -1.135000000     4.533000000
H     0.283000000    -0.556000000     4.219000000
H    -0.630000000    -1.679000000     3.776000000
O    -4.729000000    -3.790000000    -3.853000000
H    -4.666000000    -3.132000000    -4.545000000
H    -5.134000000    -3.328000000    -3.119000000
O    -3.356000000    -4.068000000    -0.358000000
H    -4.030000000    -4.314000000     0.276000000
H    -3.640000000    -3.217000000    -0.691000000
O    -2.050000000    -1.858000000     6.770000000
H    -1.437000000    -1.480000000     6.140000000
H    -2.226000000    -1.150000000     7.389000000
O    -4.585000000     1.188000000     2.228000000
H    -4.253000000     1.886000000     1.663000000
H    -5.000000000     0.570000000     1.626000000
O     4.805000000     2.263000000     2.684000000
H     4.294000000     1.485000000     2.463000000
H     5.580000000     1.922000000     3.130000000
O    -3.471000000     2.957000000    -0.116000000
H    -2.706000000     2.571000000    -0.543000000
H    -3.653000000     3.749000000    -0.621000000
O    -0.773000000     2.672000000    -1.220000000
H    -0.535000000     1.889000000    -0.722000000
H     0.009000000     2.876000000    -1.733000000
O     3.240000000     2.085000000    -5.544000000
H     2.568000000     1.998000000    -4.868000000
H     4.013000000     2.398000000    -5.073000000
O    -6.836000000    -0.142000000    -1.310000000
H    -6.752000000     0.806000000    -1.207000000
H    -7.713000000    -0.342000000    -0.983000000
O     3.125000000    -3.131000000    -3.117000000
H     2.560000000    -3.294000000    -2.362000000
H     2.519000000    -2.968000000    -3.839000000
O     5.349000000     0.885000000    -0.981000000
H     5.677000000     1.749000000    -0.730000000
H     5.716000000     0.733000000    -1.852000000
O    -6.486000000     2.283000000    -0.302000000
H    -6.923000000     2.719000000     0.430000000
H    -5.639000000     2.722000000    -0.371000000
O     4.715000000    -4.356000000    -0.965000000
H     3.883000000    -3.990000000    -1.267000000
H     4.496000000    -4.812000000    -0.153000000
O     7.955000000    -0.990000000     2.191000000
H     8.564000000    -1.129000000     1.467000000
H     7.162000000    -0.650000000     1.776000000
O     2.883000000     2.754000000    -1.084000000
H     2.927000000     3.363000000    -0.347000000
H     3.455000000     2.029000000    -0.831000000
O     3.140000000     4.382000000     1.275000000
H     2.333000000     4.672000000     1.700000000
H     3.635000000     3.948000000     1.971000000
O     0.078000000    -3.450000000    -3.047000000
H     0.016000000    -2.630000000    -3.537000000
H    -0.749000000    -3.898000000    -3.225000000
O     0.703000000     4.402000000     2.818000000
H     0.424000000     3.625000000     3.302000000
H    -0.055000000     4.636000000     2.282000000
O     1.650000000    -3.814000000    -0.744000000
H     1.132000000    -3.844000000    -1.548000000
H     1.019000000    -3.990000000    -0.046000000
O     2.178000000     3.802000000     6.787000000
H     2.195000000     4.528000000     6.163000000
H     2.267000000     3.018000000     6.244000000
O    -2.731000000    -5.073000000    -2.741000000
H    -3.459000000    -4.728000000    -3.258000000
H    -2.869000000    -4.716000000    -1.864000000
O    -3.751000000    -1.854000000     2.705000000
H    -4.238000000    -2.265000000     1.991000000
H    -4.415000000    -1.384000000     3.209000000
O    -0.646000000    -4.249000000     0.676000000
H    -1.544000000    -4.154000000     0.358000000
H    -0.575000000    -3.613000000     1.387000000
O    -5.977000000    -2.411000000     0.742000000
H    -6.094000000    -1.954000000    -0.092000000
H    -6.813000000    -2.299000000     1.195000000
O     1.201000000    -0.070000000     6.729000000
H     0.365000000     0.158000000     7.136000000
H     0.973000000    -0.310000000     5.831000000
O    -1.950000000     2.273000000    -4.852000000
H    -1.023000000     2.221000000    -5.084000000
H    -2.082000000     3.186000000    -4.597000000
O    -3.051000000    -0.427000000    -3.668000000
H    -2.752000000     0.395000000    -4.056000000
H    -2.558000000    -1.104000000    -4.132000000
O    -4.538000000    -1.763000000    -1.920000000
H    -5.190000000    -1.064000000    -1.948000000
H    -3.804000000    -1.428000000    -2.435000000
O    -0.127000000    -0.661000000    -6.921000000
H    -0.524000000    -0.815000000    -7.778000000
H     0.106000000     0.268000000    -6.927000000
O    -1.021000000     4.794000000     0.467000000
H    -0.958000000     4.178000000    -0.262000000
H    -0.364000000     5.463000000     0.272000000
O     5.388000000    -0.754000000     1.183000000
H     4.683000000    -0.237000000     1.574000000
H     5.184000000    -0.768000000     0.248000000
O     3.131000000     1.841000000     5.036000000
H     3.676000000     2.413000000     4.495000000
H     2.488000000     1.477000000     4.426000000
O     3.790000000    -1.315000000     4.331000000
H     3.062000000    -1.650000000     4.855000000
H     3.406000000    -0.612000000     3.808000000
O     6.118000000     3.313000000     0.048000000
H     5.306000000     3.056000000     0.484000000
H     6.798000000     3.181000000     0.708000000
O     2.660000000    -3.042000000     1.893000000
H     2.672000000    -2.108000000     1.685000000
H     2.678000000    -3.478000000     1.041000000
O     5.519000000    -2.742000000     5.803000000
H     5.034000000    -1.991000000     5.462000000
H     6.419000000    -2.599000000     5.511000000
O     1.228000000     2.611000000    -3.228000000
H     1.894000000     2.652000000    -2.541000000
H     1.325000000     3.436000000    -3.704000000
O    -3.020000000     1.991000000    -7.496000000
H    -2.836000000     1.864000000    -6.565000000
H    -3.482000000     2.828000000    -7.536000000
O    -4.749000000     2.801000000    -3.205000000
H    -4.498000000     3.530000000    -2.638000000
H    -4.033000000     2.172000000    -3.117000000
O    -1.189000000    -2.370000000     2.299000000
H    -1.074000000    -1.915000000     1.464000000
H    -2.060000000    -2.106000000     2.597000000
O     1.534000000    -1.768000000    -4.941000000
H     2.303000000    -1.199000000    -4.974000000
H     1.037000000    -1.545000000    -5.728000000
