158
-2994.03846
C     1.120000000    -0.280000000    -0.942000000
H     1.894000000    -0.534000000    -1.662000000
C    -0.267000000    -0.335000000    -1.250000000
H    -0.597000000    -0.602000000    -2.250000000
C    -1.194000000     0.089000000    -0.262000000
H    -2.229000000     0.041000000    -0.395000000
C    -0.799000000     0.453000000     1.023000000
H    -1.531000000     0.804000000     1.745000000
C     0.588000000     0.404000000     1.331000000
H     0.933000000     0.557000000     2.350000000
C     1.516000000    -0.054000000     0.368000000
C     2.970000000    -0.403000000     0.724000000
O     3.738000000    -0.454000000    -0.201000000
O     3.293000000    -0.511000000     1.861000000
O     3.450000000     1.323000000     3.919000000
H     3.088000000     0.874000000     4.684000000
H     3.521000000     0.640000000     3.252000000
O    -0.660000000    -2.771000000     3.714000000
H    -0.618000000    -3.123000000     2.825000000
H     0.211000000    -2.405000000     3.868000000
O     7.559000000    -2.649000000     1.970000000
H     7.156000000    -3.287000000     2.559000000
H     8.494000000    -2.854000000     1.999000000
O     4.899000000    -1.154000000    -5.529000000
H     4.768000000    -1.941000000    -5.000000000
H     5.399000000    -0.565000000    -4.963000000
O    -0.440000000     1.266000000    -4.888000000
H    -1.097000000     1.782000000    -4.421000000
H    -0.670000000     1.367000000    -5.812000000
O     2.316000000    -0.312000000     5.844000000
H     2.973000000    -0.151000000     6.521000000
H     1.516000000    -0.512000000     6.330000000
O    -1.319000000    -5.165000000    -3.480000000
H    -1.773000000    -4.403000000    -3.120000000
H    -1.696000000    -5.279000000    -4.352000000
O    -4.089000000     0.936000000    -3.579000000
H    -3.564000000     1.717000000    -3.754000000
H    -4.338000000     1.017000000    -2.658000000
O     2.316000000     1.298000000    -5.565000000
H     2.572000000     0.808000000    -4.784000000
H     1.413000000     1.565000000    -5.394000000
O     1.924000000    -2.749000000    -3.840000000
H     0.982000000    -2.605000000    -3.926000000
H     2.245000000    -2.780000000    -4.742000000
O    -7.489000000     0.829000000     0.866000000
H    -8.029000000     0.525000000     0.136000000
H    -6.863000000     0.120000000     1.012000000
O    -5.224000000    -4.465000000    -0.990000000
H    -5.287000000    -4.470000000    -1.946000000
H    -5.219000000    -3.536000000    -0.756000000
O    -3.506000000     2.255000000     2.510000000
H    -2.773000000     2.831000000     2.728000000
H    -3.443000000     2.135000000     1.562000000
O    -6.668000000    -1.180000000    -2.731000000
H    -6.690000000    -2.135000000    -2.790000000
H    -6.667000000    -0.884000000    -3.642000000
O    -0.433000000    -1.479000000    -5.067000000
H    -0.489000000    -0.548000000    -4.850000000
H     0.261000000    -1.530000000    -5.725000000
O     1.418000000     3.052000000     5.895000000
H     0.882000000     2.452000000     6.414000000
H     1.983000000     2.480000000     5.376000000
O    -3.119000000     2.527000000    -0.211000000
H    -2.363000000     1.986000000    -0.440000000
H    -2.971000000     3.352000000    -0.674000000
O    -2.953000000     4.556000000    -1.924000000
H    -3.673000000     4.751000000    -1.324000000
H    -2.675000000     5.412000000    -2.251000000
O    -2.452000000     2.951000000    -4.299000000
H    -2.467000000     3.329000000    -5.178000000
H    -2.288000000     3.695000000    -3.720000000
O     1.312000000    -4.349000000     1.828000000
H     1.442000000    -3.848000000     2.633000000
H     2.127000000    -4.232000000     1.340000000
O     1.125000000    -5.559000000    -2.510000000
H     0.329000000    -5.216000000    -2.915000000
H     0.948000000    -5.525000000    -1.569000000
O     4.468000000    -1.577000000    -2.340000000
H     3.635000000    -1.923000000    -2.662000000
H     4.229000000    -1.046000000    -1.581000000
O     4.046000000     4.331000000    -2.741000000
H     4.533000000     3.594000000    -2.372000000
H     3.128000000     4.122000000    -2.567000000
O     7.856000000    -0.456000000     0.134000000
H     8.643000000     0.044000000     0.351000000
H     7.526000000    -0.762000000     0.979000000
O    -4.171000000     0.337000000    -6.421000000
H    -4.132000000     0.129000000    -5.488000000
H    -4.944000000     0.895000000    -6.510000000
O     1.596000000     4.491000000     3.583000000
H     1.508000000     4.130000000     4.466000000
H     1.547000000     5.439000000     3.706000000
O     3.972000000    -4.831000000    -2.317000000
H     4.564000000    -4.228000000    -1.866000000
H     3.120000000    -4.396000000    -2.288000000
O     6.110000000     4.190000000     1.215000000
H     7.017000000     3.925000000     1.061000000
H     5.671000000     3.389000000     1.499000000
O    -3.756000000     2.419000000     5.154000000
H    -3.494000000     2.468000000     4.234000000
H    -4.649000000     2.762000000     5.167000000
O    -5.026000000    -1.835000000    -0.372000000
H    -5.248000000    -1.602000000     0.529000000
H    -5.484000000    -1.186000000    -0.907000000
O     5.733000000     0.720000000    -3.512000000
H     5.088000000     1.127000000    -2.934000000
H     6.548000000     0.733000000    -3.010000000
O    -3.873000000    -4.023000000     2.043000000
H    -3.429000000    -4.863000000     1.926000000
H    -3.412000000    -3.424000000     1.456000000
O     5.330000000     3.750000000     4.461000000
H     4.876000000     3.012000000     4.054000000
H     4.812000000     3.947000000     5.242000000
O    -4.986000000    -0.152000000     2.719000000
H    -4.649000000     0.732000000     2.574000000
H    -4.340000000    -0.563000000     3.294000000
O    -2.047000000    -2.909000000     0.512000000
H    -1.413000000    -2.246000000     0.783000000
H    -2.311000000    -2.643000000    -0.368000000
O     5.386000000     1.442000000     1.398000000
H     4.916000000     0.609000000     1.442000000
H     6.311000000     1.196000000     1.406000000
O    -1.966000000     4.846000000     3.043000000
H    -2.377000000     5.540000000     3.559000000
H    -1.127000000     5.217000000     2.769000000
O     1.839000000    -2.073000000     3.638000000
H     2.109000000    -1.464000000     2.950000000
H     2.173000000    -1.685000000     4.446000000
O     5.188000000    -1.769000000     3.304000000
H     4.511000000    -1.317000000     2.801000000
H     5.834000000    -2.036000000     2.651000000
O     6.135000000    -3.184000000    -0.784000000
H     5.794000000    -2.438000000    -1.278000000
H     6.714000000    -2.793000000    -0.129000000
O     6.758000000    -0.741000000     5.427000000
H     7.469000000    -1.379000000     5.357000000
H     6.140000000    -0.995000000     4.742000000
O     3.420000000    -3.654000000     0.283000000
H     3.408000000    -2.725000000     0.052000000
H     4.301000000    -3.947000000     0.052000000
O     1.035000000     3.904000000    -2.162000000
H     0.912000000     4.341000000    -3.004000000
H     0.297000000     3.297000000    -2.096000000
O     4.306000000     1.906000000    -1.511000000
H     3.838000000     1.112000000    -1.251000000
H     4.767000000     2.183000000    -0.719000000
O     2.873000000     3.042000000     1.650000000
H     3.151000000     2.167000000     1.921000000
H     2.452000000     3.410000000     2.426000000
O    -7.443000000    -2.108000000     0.755000000
H    -8.169000000    -1.906000000     1.345000000
H    -7.548000000    -3.039000000     0.557000000
O    -2.691000000    -2.688000000    -3.391000000
H    -3.380000000    -2.032000000    -3.285000000
H    -2.063000000    -2.282000000    -3.989000000
O    -3.375000000    -2.189000000     4.385000000
H    -2.457000000    -2.233000000     4.119000000
H    -3.796000000    -2.908000000     3.913000000
