158
-3033.60001
C    -1.122000000    -0.734000000     0.730000000
H    -1.940000000    -1.332000000     1.122000000
C    -0.276000000    -1.303000000    -0.169000000
H    -0.341000000    -2.366000000    -0.388000000
C     0.737000000    -0.569000000    -0.754000000
H     1.255000000    -1.010000000    -1.569000000
C     0.984000000     0.750000000    -0.373000000
H     1.735000000     1.284000000    -0.950000000
C     0.143000000     1.350000000     0.586000000
H     0.212000000     2.416000000     0.790000000
C    -0.903000000     0.609000000     1.142000000
C    -1.989000000     1.343000000     1.925000000
O    -1.996000000     2.544000000     2.172000000
O    -2.825000000     0.701000000     2.429000000
O    -0.655000000    -1.204000000     6.471000000
H    -0.042000000    -1.298000000     5.742000000
H    -1.246000000    -0.502000000     6.198000000
O    -2.674000000     6.675000000     0.665000000
H    -2.706000000     6.708000000     1.622000000
H    -2.625000000     5.741000000     0.459000000
O     1.071000000     0.330000000    -7.300000000
H     1.150000000     0.734000000    -6.436000000
H     1.961000000     0.340000000    -7.652000000
O    -1.698000000     3.113000000    -1.370000000
H    -2.274000000     3.459000000    -0.688000000
H    -0.865000000     3.564000000    -1.232000000
O    -2.219000000     1.819000000    -4.713000000
H    -1.370000000     1.857000000    -5.154000000
H    -2.170000000     1.035000000    -4.168000000
O    -4.952000000     0.427000000     0.771000000
H    -4.895000000    -0.526000000     0.708000000
H    -4.160000000     0.684000000     1.243000000
O     4.548000000    -1.582000000     0.391000000
H     3.798000000    -1.887000000    -0.120000000
H     4.558000000    -0.634000000     0.259000000
O     3.754000000     3.948000000     1.901000000
H     4.156000000     3.791000000     2.755000000
H     4.328000000     4.588000000     1.480000000
O     2.295000000    -3.793000000    -5.142000000
H     1.451000000    -4.181000000    -5.372000000
H     2.756000000    -3.710000000    -5.977000000
O     0.774000000    -0.948000000     3.495000000
H     0.278000000    -1.242000000     2.731000000
H     1.573000000    -0.569000000     3.131000000
O     3.902000000    -5.366000000    -3.471000000
H     4.105000000    -6.097000000    -4.054000000
H     3.518000000    -4.702000000    -4.044000000
O    -2.366000000     0.922000000     5.330000000
H    -3.274000000     0.979000000     5.629000000
H    -2.421000000     0.487000000     4.479000000
O    -5.684000000     2.122000000    -1.547000000
H    -4.984000000     1.583000000    -1.179000000
H    -5.456000000     2.213000000    -2.472000000
O     3.436000000    -4.077000000     1.330000000
H     3.932000000    -3.273000000     1.176000000
H     2.918000000    -3.893000000     2.113000000
O     5.802000000    -2.582000000    -2.247000000
H     6.685000000    -2.948000000    -2.300000000
H     5.730000000    -2.262000000    -1.347000000
O     1.024000000    -4.410000000    -0.457000000
H     0.238000000    -4.346000000     0.085000000
H     1.632000000    -4.935000000     0.064000000
O    -0.661000000    -3.076000000    -3.881000000
H    -0.384000000    -3.500000000    -4.694000000
H    -0.278000000    -3.614000000    -3.188000000
O     2.637000000    -3.321000000    -2.178000000
H     3.355000000    -3.938000000    -2.312000000
H     1.967000000    -3.828000000    -1.720000000
O    -4.065000000    -2.961000000     5.680000000
H    -3.674000000    -2.357000000     6.311000000
H    -3.943000000    -2.534000000     4.832000000
O    -2.056000000     0.419000000    -2.063000000
H    -2.369000000     1.323000000    -2.102000000
H    -1.296000000     0.453000000    -1.482000000
O    -1.596000000     3.679000000     4.705000000
H    -1.536000000     3.504000000     3.765000000
H    -1.672000000     2.812000000     5.105000000
O     4.215000000     0.905000000    -2.325000000
H     4.030000000     0.137000000    -2.866000000
H     4.852000000     1.408000000    -2.832000000
O    -3.809000000     4.665000000     6.602000000
H    -3.459000000     4.110000000     5.904000000
H    -3.054000000     4.850000000     7.161000000
O    -5.437000000     5.570000000     3.424000000
H    -4.792000000     6.165000000     3.042000000
H    -5.294000000     4.738000000     2.972000000
O    -3.439000000    -1.548000000     3.344000000
H    -3.209000000    -0.726000000     2.912000000
H    -4.103000000    -1.940000000     2.776000000
O     3.061000000    -1.362000000    -4.036000000
H     2.890000000    -1.770000000    -3.187000000
H     2.768000000    -2.010000000    -4.676000000
O     1.319000000     2.910000000     3.960000000
H     1.603000000     2.166000000     3.429000000
H     0.365000000     2.834000000     3.987000000
O    -0.819000000    -0.695000000    -4.932000000
H    -0.810000000    -1.502000000    -4.417000000
H    -0.511000000    -0.961000000    -5.799000000
O     1.203000000     4.889000000     1.261000000
H     1.778000000     4.480000000     1.909000000
H     0.635000000     5.463000000     1.775000000
O     0.003000000     3.930000000    -4.122000000
H     0.913000000     3.656000000    -4.233000000
H    -0.171000000     3.808000000    -3.188000000
O     4.237000000     1.166000000     0.280000000
H     4.267000000     1.108000000    -0.675000000
H     3.799000000     1.998000000     0.456000000
O     2.769000000     3.198000000    -3.480000000
H     3.637000000     3.019000000    -3.118000000
H     2.431000000     2.337000000    -3.726000000
O    -5.024000000     1.531000000     5.573000000
H    -5.878000000     1.782000000     5.926000000
H    -4.989000000     1.947000000     4.712000000
O    -7.653000000     0.776000000     1.601000000
H    -7.954000000     1.676000000     1.474000000
H    -6.738000000     0.788000000     1.319000000
O     1.627000000     0.851000000    -4.580000000
H     0.771000000     0.425000000    -4.541000000
H     2.251000000     0.152000000    -4.382000000
O    -4.050000000    -1.574000000    -2.898000000
H    -3.189000000    -1.187000000    -2.745000000
H    -4.078000000    -1.733000000    -3.841000000
O    -3.204000000     4.166000000     0.581000000
H    -2.670000000     3.723000000     1.240000000
H    -4.104000000     4.060000000     0.890000000
O     5.808000000    -1.152000000    -5.047000000
H     4.946000000    -0.900000000    -4.714000000
H     6.083000000    -1.872000000    -4.479000000
O    -3.564000000    -4.509000000     2.318000000
H    -3.230000000    -4.785000000     3.172000000
H    -4.072000000    -5.258000000     2.006000000
O    -4.806000000    -2.236000000     0.834000000
H    -5.677000000    -2.549000000     0.587000000
H    -4.252000000    -3.016000000     0.798000000
O    -4.540000000     2.659000000     3.173000000
H    -3.616000000     2.495000000     2.984000000
H    -4.964000000     2.656000000     2.316000000
O     2.950000000     0.721000000     2.765000000
H     3.133000000     0.503000000     1.851000000
H     3.775000000     1.073000000     3.097000000
O    -2.191000000    -5.052000000    -0.949000000
H    -1.522000000    -5.279000000    -1.595000000
H    -1.697000000    -4.725000000    -0.198000000
O     0.709000000     4.357000000    -1.301000000
H     1.033000000     4.360000000    -0.400000000
H     1.419000000     4.745000000    -1.812000000
O    -0.989000000    -4.172000000     1.396000000
H    -0.546000000    -4.501000000     2.178000000
H    -1.899000000    -4.055000000     1.668000000
O    -5.827000000     3.414000000     1.008000000
H    -6.684000000     3.723000000     1.301000000
H    -5.997000000     3.001000000     0.162000000
O    -4.596000000    -3.790000000    -1.670000000
H    -3.757000000    -3.990000000    -1.254000000
H    -4.443000000    -2.967000000    -2.134000000
O    -1.188000000     6.361000000     5.211000000
H    -1.025000000     5.418000000     5.179000000
H    -0.781000000     6.647000000     6.029000000
