158
-3040.80903
C     0.608000000    -0.445000000    -1.203000000
H     1.000000000    -0.906000000    -2.106000000
C    -0.703000000    -0.451000000    -0.986000000
H    -1.378000000    -0.766000000    -1.778000000
C    -1.221000000     0.053000000     0.184000000
H    -2.277000000     0.014000000     0.343000000
C    -0.323000000     0.576000000     1.152000000
H    -0.766000000     0.916000000     2.084000000
C     1.025000000     0.663000000     0.893000000
H     1.698000000     1.032000000     1.662000000
C     1.523000000     0.120000000    -0.311000000
C     3.008000000     0.079000000    -0.508000000
O     3.382000000    -0.387000000    -1.596000000
O     3.821000000     0.318000000     0.387000000
O     7.284000000     2.821000000    -2.145000000
H     7.933000000     2.290000000    -1.683000000
H     6.701000000     2.183000000    -2.556000000
O     3.356000000     1.644000000     3.528000000
H     4.007000000     1.360000000     4.169000000
H     3.536000000     1.112000000     2.752000000
O     1.263000000    -2.470000000     4.645000000
H     2.027000000    -2.379000000     4.075000000
H     1.308000000    -1.712000000     5.229000000
O     4.772000000    -0.172000000    -6.498000000
H     4.287000000    -0.341000000    -5.691000000
H     4.526000000     0.720000000    -6.743000000
O    -0.445000000     0.955000000    -4.395000000
H     0.219000000     0.800000000    -5.067000000
H    -0.001000000     0.758000000    -3.570000000
O     0.665000000     1.994000000     4.383000000
H     1.622000000     2.011000000     4.411000000
H     0.448000000     2.197000000     3.473000000
O     1.047000000    -3.544000000    -3.223000000
H     0.584000000    -4.325000000    -2.919000000
H     1.653000000    -3.333000000    -2.513000000
O    -6.673000000     2.754000000    -1.349000000
H    -6.590000000     2.275000000    -2.173000000
H    -5.835000000     2.615000000    -0.906000000
O    -4.753000000    -5.755000000    -1.536000000
H    -5.258000000    -5.596000000    -2.333000000
H    -4.195000000    -4.983000000    -1.447000000
O    -1.703000000     3.182000000    -1.211000000
H    -1.126000000     3.565000000    -1.872000000
H    -1.165000000     3.137000000    -0.421000000
O     0.778000000    -1.652000000    -5.211000000
H     0.598000000    -2.461000000    -4.731000000
H     0.684000000    -1.895000000    -6.132000000
O    -1.514000000     4.475000000     3.033000000
H    -2.466000000     4.377000000     3.032000000
H    -1.293000000     4.676000000     2.123000000
O    -1.039000000     0.764000000     6.331000000
H    -1.700000000     1.415000000     6.094000000
H    -0.234000000     1.081000000     5.922000000
O    -4.144000000    -3.752000000    -5.425000000
H    -4.475000000    -3.679000000    -6.320000000
H    -3.382000000    -3.173000000    -5.403000000
O     1.978000000    -5.555000000     0.153000000
H     1.525000000    -5.664000000     0.990000000
H     1.729000000    -4.679000000    -0.142000000
O    -5.046000000    -0.281000000     1.999000000
H    -5.483000000     0.494000000     2.351000000
H    -4.356000000     0.069000000     1.434000000
O    -0.172000000    -5.367000000    -1.814000000
H    -0.418000000    -6.268000000    -2.023000000
H    -0.737000000    -5.128000000    -1.079000000
O     3.110000000    -0.496000000    -4.484000000
H     2.359000000    -1.067000000    -4.645000000
H     3.128000000    -0.387000000    -3.533000000
O     8.478000000     0.750000000    -0.854000000
H     8.661000000     0.441000000    -1.741000000
H     7.692000000     0.272000000    -0.591000000
O     4.907000000    -0.008000000     5.710000000
H     5.389000000    -0.104000000     4.889000000
H     4.212000000    -0.664000000     5.659000000
O    -4.916000000     1.378000000     6.368000000
H    -4.158000000     1.324000000     5.787000000
H    -5.060000000     2.317000000     6.488000000
O     7.044000000     4.085000000     1.387000000
H     7.834000000     3.546000000     1.388000000
H     6.377000000     3.533000000     0.978000000
O    -3.970000000     3.354000000     2.264000000
H    -3.926000000     2.944000000     1.401000000
H    -4.779000000     3.017000000     2.649000000
O    -3.688000000     0.031000000    -3.317000000
H    -4.384000000     0.343000000    -3.895000000
H    -3.031000000    -0.335000000    -3.909000000
O     4.811000000     2.496000000    -5.078000000
H     5.053000000     1.971000000    -4.315000000
H     3.963000000     2.876000000    -4.849000000
O    -1.811000000    -3.810000000     1.932000000
H    -1.843000000    -4.719000000     1.632000000
H    -2.508000000    -3.372000000     1.444000000
O     3.746000000     4.397000000     3.311000000
H     3.279000000     3.564000000     3.383000000
H     3.112000000     5.053000000     3.601000000
O    -4.929000000    -2.201000000     4.001000000
H    -3.992000000    -2.351000000     4.129000000
H    -4.973000000    -1.432000000     3.434000000
O    -4.095000000     1.670000000    -0.418000000
H    -3.307000000     2.212000000    -0.466000000
H    -4.079000000     1.154000000    -1.224000000
O    -6.396000000     1.797000000     2.986000000
H    -6.532000000     1.996000000     3.912000000
H    -7.155000000     1.268000000     2.740000000
O    -4.108000000    -3.187000000    -1.369000000
H    -5.001000000    -2.845000000    -1.353000000
H    -3.623000000    -2.569000000    -1.915000000
O     5.248000000     2.393000000     0.149000000
H     4.772000000     1.603000000     0.405000000
H     5.296000000     2.344000000    -0.806000000
O     0.264000000     4.745000000     1.052000000
H     1.195000000     4.523000000     1.017000000
H     0.222000000     5.508000000     1.628000000
O     3.280000000    -1.526000000     2.512000000
H     3.643000000    -1.083000000     1.745000000
H     2.633000000    -2.134000000     2.154000000
O     5.047000000    -3.977000000     0.363000000
H     5.779000000    -4.194000000     0.941000000
H     4.519000000    -4.776000000     0.336000000
O     6.356000000    -0.431000000     0.656000000
H     5.429000000    -0.233000000     0.519000000
H     6.520000000    -1.199000000     0.110000000
O     1.113000000    -3.014000000     1.431000000
H     0.331000000    -3.393000000     1.834000000
H     0.797000000    -2.223000000     0.995000000
O     6.822000000    -1.449000000    -3.034000000
H     7.239000000    -1.806000000    -2.250000000
H     6.454000000    -2.213000000    -3.478000000
O     6.065000000    -0.020000000     3.274000000
H     6.926000000    -0.345000000     3.535000000
H     6.064000000    -0.082000000     2.319000000
O     3.098000000    -3.044000000    -1.190000000
H     3.244000000    -2.102000000    -1.277000000
H     3.882000000    -3.369000000    -0.747000000
O    -1.500000000     3.594000000    -4.343000000
H    -0.868000000     4.116000000    -4.836000000
H    -1.149000000     2.704000000    -4.370000000
O     5.392000000     0.825000000    -2.944000000
H     4.609000000     0.690000000    -2.411000000
H     5.773000000    -0.049000000    -3.036000000
O     3.175000000     4.302000000     0.485000000
H     3.670000000     4.673000000     1.215000000
H     3.674000000     3.527000000     0.227000000
O     4.670000000    -2.927000000     4.170000000
H     4.387000000    -2.277000000     3.527000000
H     4.803000000    -3.726000000     3.660000000
O    -6.130000000    -1.347000000    -1.142000000
H    -5.819000000    -1.019000000    -0.299000000
H    -5.613000000    -0.868000000    -1.791000000
O    -2.835000000     2.761000000     5.340000000
H    -2.723000000     3.375000000     6.066000000
H    -2.453000000     3.210000000     4.586000000
O    -2.186000000    -1.476000000    -5.511000000
H    -2.206000000    -1.044000000    -6.366000000
H    -1.326000000    -1.255000000    -5.152000000
O    -1.825000000    -2.455000000     4.391000000
H    -1.256000000    -1.725000000     4.149000000
H    -1.603000000    -3.148000000     3.769000000
