158
-3032.34544
C     1.195000000     0.007000000    -0.818000000
H     2.008000000    -0.122000000    -1.528000000
C    -0.053000000    -0.517000000    -1.239000000
H    -0.108000000    -0.990000000    -2.216000000
C    -1.089000000    -0.457000000    -0.338000000
H    -2.086000000    -0.791000000    -0.567000000
C    -0.933000000     0.080000000     0.940000000
H    -1.787000000     0.201000000     1.602000000
C     0.272000000     0.712000000     1.339000000
H     0.473000000     1.097000000     2.335000000
C     1.395000000     0.525000000     0.503000000
C     2.791000000     1.027000000     1.010000000
O     3.607000000     1.474000000     0.238000000
O     2.940000000     1.224000000     2.231000000
O     2.586000000    -0.549000000     4.318000000
H     2.309000000    -0.011000000     3.576000000
H     3.231000000    -1.153000000     3.950000000
O     4.838000000     2.172000000    -2.351000000
H     5.767000000     2.052000000    -2.154000000
H     4.389000000     1.939000000    -1.539000000
O    -3.561000000     2.538000000     0.776000000
H    -3.232000000     2.821000000     1.630000000
H    -3.067000000     3.061000000     0.144000000
O    -0.654000000    -2.147000000    -5.245000000
H     0.224000000    -2.346000000    -4.919000000
H    -0.694000000    -2.571000000    -6.102000000
O    -2.060000000    -6.012000000    -4.007000000
H    -1.233000000    -6.053000000    -4.487000000
H    -2.407000000    -5.142000000    -4.202000000
O     2.761000000    -2.936000000     0.215000000
H     2.650000000    -3.203000000    -0.698000000
H     1.871000000    -2.772000000     0.526000000
O    -2.565000000     3.033000000     3.276000000
H    -2.666000000     2.295000000     3.877000000
H    -1.639000000     3.267000000     3.337000000
O     5.350000000    -0.618000000     1.047000000
H     6.083000000    -0.217000000     1.515000000
H     4.802000000     0.121000000     0.783000000
O    -6.803000000    -2.852000000     1.584000000
H    -6.564000000    -3.084000000     2.481000000
H    -7.324000000    -3.594000000     1.276000000
O     5.173000000     2.861000000     2.104000000
H     4.596000000     2.278000000     1.611000000
H     5.026000000     2.626000000     3.020000000
O    -0.004000000     4.959000000     4.011000000
H     0.813000000     4.855000000     4.498000000
H    -0.166000000     5.902000000     4.013000000
O     2.590000000     4.315000000     4.881000000
H     2.923000000     3.436000000     5.062000000
H     3.192000000     4.898000000     5.343000000
O    -4.028000000    -3.959000000    -4.385000000
H    -4.820000000    -4.490000000    -4.469000000
H    -3.791000000    -3.739000000    -5.286000000
O    -1.845000000     4.602000000    -0.266000000
H    -0.979000000     4.540000000    -0.668000000
H    -2.440000000     4.759000000    -0.999000000
O    -4.365000000    -0.040000000     0.514000000
H    -3.515000000    -0.480000000     0.508000000
H    -4.152000000     0.893000000     0.546000000
O    -4.995000000    -1.542000000    -3.203000000
H    -5.539000000    -1.532000000    -2.416000000
H    -4.388000000    -2.269000000    -3.065000000
O    -7.243000000    -1.403000000    -4.681000000
H    -6.403000000    -1.395000000    -4.223000000
H    -7.084000000    -1.934000000    -5.462000000
O     7.470000000     1.502000000     1.045000000
H     6.750000000     2.020000000     1.405000000
H     8.179000000     1.604000000     1.680000000
O     4.191000000     1.836000000     4.337000000
H     3.803000000     1.739000000     3.467000000
H     4.148000000     0.958000000     4.717000000
O    -0.017000000     2.370000000     5.906000000
H    -0.464000000     2.907000000     5.252000000
H     0.758000000     2.879000000     6.144000000
O    -6.823000000    -1.792000000    -0.962000000
H    -6.851000000    -2.125000000    -0.065000000
H    -7.360000000    -1.000000000    -0.941000000
O    -2.030000000    -5.023000000     2.801000000
H    -1.320000000    -5.005000000     2.159000000
H    -2.825000000    -4.896000000     2.283000000
O    -3.516000000     0.901000000     4.792000000
H    -4.303000000     0.426000000     5.059000000
H    -2.796000000     0.419000000     5.198000000
O    -6.917000000    -0.152000000     2.501000000
H    -6.833000000    -1.006000000     2.077000000
H    -6.019000000     0.172000000     2.566000000
O    -0.071000000    -5.079000000    -0.755000000
H     0.657000000    -5.679000000    -0.918000000
H     0.310000000    -4.376000000    -0.229000000
O    -2.036000000    -0.993000000     6.260000000
H    -2.210000000    -1.783000000     6.772000000
H    -1.104000000    -1.045000000     6.049000000
O     7.528000000     1.582000000    -1.671000000
H     7.811000000     0.668000000    -1.655000000
H     7.492000000     1.837000000    -0.749000000
O    -5.155000000    -4.522000000    -0.082000000
H    -4.368000000    -4.230000000    -0.543000000
H    -5.217000000    -3.941000000     0.676000000
O    -2.172000000    -0.164000000    -4.265000000
H    -2.934000000    -0.706000000    -4.062000000
H    -1.485000000    -0.791000000    -4.489000000
O     1.878000000     4.789000000     1.941000000
H     2.239000000     4.267000000     2.658000000
H     0.998000000     5.024000000     2.235000000
O     6.644000000     0.083000000     3.383000000
H     6.361000000    -0.050000000     4.288000000
H     6.942000000     0.992000000     3.356000000
O     2.688000000     3.923000000    -0.665000000
H     2.170000000     4.018000000     0.134000000
H     3.042000000     3.035000000    -0.618000000
O    -5.597000000     2.735000000     3.388000000
H    -5.196000000     3.181000000     2.643000000
H    -4.879000000     2.245000000     3.789000000
O     2.385000000    -2.671000000    -5.261000000
H     2.921000000    -1.882000000    -5.176000000
H     2.710000000    -3.097000000    -6.054000000
O    -2.346000000     1.522000000    -6.849000000
H    -2.056000000     1.062000000    -6.061000000
H    -1.605000000     1.456000000    -7.451000000
O     5.706000000    -2.412000000    -0.963000000
H     5.384000000    -1.726000000    -0.378000000
H     6.200000000    -3.001000000    -0.393000000
O     4.433000000    -0.972000000    -4.892000000
H     4.129000000    -0.083000000    -5.077000000
H     4.919000000    -1.227000000    -5.676000000
O     5.675000000    -3.169000000    -3.642000000
H     5.595000000    -2.511000000    -2.952000000
H     5.437000000    -2.704000000    -4.444000000
O    -2.737000000    -4.266000000    -1.401000000
H    -1.819000000    -4.404000000    -1.166000000
H    -2.708000000    -3.950000000    -2.304000000
O     1.570000000     5.530000000    -2.688000000
H     2.011000000     4.957000000    -2.061000000
H     1.926000000     6.401000000    -2.509000000
O     3.937000000    -2.411000000     2.691000000
H     3.522000000    -2.659000000     1.865000000
H     4.583000000    -1.748000000     2.447000000
O     2.695000000    -3.083000000    -2.646000000
H     2.751000000    -2.944000000    -3.591000000
H     3.514000000    -2.727000000    -2.302000000
O    -5.214000000     1.763000000    -2.503000000
H    -4.316000000     2.079000000    -2.607000000
H    -5.120000000     0.830000000    -2.315000000
O     5.803000000     4.981000000    -0.131000000
H     5.494000000     4.313000000     0.482000000
H     5.103000000     5.633000000    -0.148000000
O     3.134000000     3.849000000    -4.287000000
H     2.429000000     3.661000000    -3.667000000
H     3.936000000     3.640000000    -3.809000000
O    -2.502000000     2.242000000    -2.721000000
H    -2.399000000     1.641000000    -3.459000000
H    -1.742000000     2.822000000    -2.777000000
O     0.859000000    -0.507000000     6.531000000
H     1.084000000     0.421000000     6.591000000
H     1.139000000    -0.766000000     5.653000000
O     0.335000000    -2.635000000     1.494000000
H    -0.057000000    -1.773000000     1.355000000
H     0.255000000    -2.786000000     2.436000000
