158
-3052.85465
C     0.533000000    -0.306000000    -1.344000000
H     0.659000000    -0.452000000    -2.414000000
C    -0.808000000    -0.455000000    -0.950000000
H    -1.596000000    -0.851000000    -1.586000000
C    -1.199000000    -0.167000000     0.298000000
H    -2.298000000    -0.212000000     0.520000000
C    -0.266000000     0.380000000     1.175000000
H    -0.588000000     0.658000000     2.176000000
C     1.101000000     0.483000000     0.882000000
H     1.875000000     0.751000000     1.596000000
C     1.492000000     0.157000000    -0.441000000
C     2.980000000     0.182000000    -0.817000000
O     3.392000000    -0.090000000    -1.935000000
O     3.791000000     0.784000000    -0.156000000
O     5.237000000     2.100000000    -2.183000000
H     4.599000000     2.577000000    -2.713000000
H     4.707000000     1.580000000    -1.580000000
O     2.893000000    -2.649000000     4.441000000
H     2.378000000    -3.264000000     3.919000000
H     3.340000000    -3.198000000     5.086000000
O     2.572000000     0.396000000    -4.391000000
H     2.081000000    -0.331000000    -4.776000000
H     2.579000000     0.210000000    -3.452000000
O    -3.306000000     2.491000000    -0.620000000
H    -3.592000000     2.822000000     0.231000000
H    -3.679000000     3.104000000    -1.253000000
O     3.329000000    -2.905000000    -5.444000000
H     3.030000000    -3.412000000    -6.199000000
H     4.284000000    -2.924000000    -5.506000000
O     2.743000000    -3.309000000    -0.001000000
H     2.799000000    -2.842000000    -0.835000000
H     1.872000000    -3.095000000     0.334000000
O     3.919000000    -0.304000000    -7.227000000
H     3.636000000    -0.234000000    -6.315000000
H     4.377000000    -1.143000000    -7.272000000
O    -3.777000000    -0.009000000     3.133000000
H    -3.058000000    -0.509000000     3.520000000
H    -3.651000000     0.883000000     3.458000000
O     5.942000000    -0.700000000    -2.965000000
H     6.339000000    -0.119000000    -3.615000000
H     5.284000000    -0.159000000    -2.530000000
O    -3.593000000    -2.590000000     2.152000000
H    -4.002000000    -2.685000000     1.292000000
H    -3.890000000    -1.736000000     2.466000000
O     5.827000000     1.622000000     1.223000000
H     5.228000000     1.295000000     0.552000000
H     5.601000000     2.547000000     1.315000000
O    -2.899000000     2.485000000     3.808000000
H    -1.964000000     2.670000000     3.894000000
H    -3.304000000     2.955000000     4.537000000
O     1.756000000     4.663000000     4.085000000
H     1.367000000     3.966000000     3.558000000
H     1.443000000     5.473000000     3.682000000
O    -0.702000000     2.424000000    -1.991000000
H    -0.670000000     2.058000000    -2.875000000
H    -1.153000000     1.757000000    -1.473000000
O    -2.922000000    -5.831000000    -1.956000000
H    -2.331000000    -5.340000000    -1.385000000
H    -2.658000000    -6.745000000    -1.846000000
O    -0.626000000     3.430000000     0.953000000
H    -0.635000000     3.066000000     0.068000000
H    -0.345000000     2.703000000     1.509000000
O    -4.504000000    -0.667000000    -3.918000000
H    -3.582000000    -0.626000000    -4.170000000
H    -4.621000000     0.069000000    -3.317000000
O     3.673000000     0.009000000     3.233000000
H     3.957000000    -0.837000000     3.578000000
H     4.038000000     0.041000000     2.348000000
O    -0.390000000     2.487000000     4.784000000
H    -0.368000000     2.986000000     5.601000000
H     0.493000000     2.128000000     4.700000000
O    -6.003000000    -2.769000000    -3.034000000
H    -5.407000000    -2.158000000    -3.468000000
H    -6.820000000    -2.279000000    -2.939000000
O    -1.907000000    -1.069000000     5.053000000
H    -1.939000000    -0.491000000     5.815000000
H    -0.973000000    -1.189000000     4.882000000
O    -7.308000000    -0.968000000     0.463000000
H    -7.527000000    -0.990000000     1.395000000
H    -6.482000000    -0.485000000     0.422000000
O     5.229000000     4.390000000     1.958000000
H     6.021000000     4.878000000     1.731000000
H     5.079000000     4.594000000     2.881000000
O     0.146000000    -4.342000000    -2.589000000
H     0.921000000    -3.809000000    -2.766000000
H    -0.513000000    -4.017000000    -3.203000000
O     8.645000000     2.216000000     1.048000000
H     7.716000000     1.989000000     1.015000000
H     8.815000000     2.396000000     1.973000000
O    -4.613000000     3.698000000     1.678000000
H    -4.923000000     3.010000000     2.267000000
H    -4.293000000     4.386000000     2.262000000
O     8.495000000    -1.699000000    -1.912000000
H     8.677000000    -1.842000000    -0.983000000
H     7.661000000    -1.228000000    -1.924000000
O    -4.848000000    -2.701000000    -0.344000000
H    -4.660000000    -3.158000000    -1.164000000
H    -5.583000000    -2.125000000    -0.555000000
O     7.045000000     0.568000000     3.702000000
H     6.319000000     0.747000000     3.103000000
H     7.741000000     1.160000000     3.419000000
O    -4.083000000    -3.011000000     6.136000000
H    -3.510000000    -2.341000000     5.764000000
H    -3.778000000    -3.114000000     7.037000000
O     0.042000000     1.514000000    -4.353000000
H    -0.064000000     1.617000000    -5.299000000
H     0.868000000     1.040000000    -4.255000000
O    -6.082000000     1.730000000     3.162000000
H    -7.038000000     1.682000000     3.154000000
H    -5.796000000     0.817000000     3.161000000
O     2.491000000     1.676000000     4.952000000
H     3.042000000     1.154000000     4.370000000
H     2.913000000     2.535000000     4.975000000
O     1.547000000     4.163000000    -1.251000000
H     1.087000000     3.345000000    -1.440000000
H     2.023000000     3.989000000    -0.438000000
O     2.999000000     3.192000000     0.884000000
H     3.787000000     3.638000000     1.193000000
H     3.305000000     2.327000000     0.611000000
O     0.636000000    -1.130000000    -5.438000000
H     0.670000000    -2.002000000    -5.831000000
H     0.722000000    -0.530000000    -6.178000000
O    -1.693000000     5.725000000     1.899000000
H    -1.536000000     4.867000000     1.505000000
H    -2.000000000     6.269000000     1.173000000
O     5.527000000    -2.890000000    -1.387000000
H     5.636000000    -2.178000000    -2.017000000
H     5.348000000    -2.450000000    -0.556000000
O    -1.026000000    -3.552000000     3.437000000
H    -1.753000000    -2.977000000     3.199000000
H    -1.438000000    -4.274000000     3.913000000
O    -4.788000000     0.539000000     0.400000000
H    -4.220000000     1.011000000    -0.209000000
H    -4.302000000     0.531000000     1.224000000
O    -0.056000000    -5.506000000    -0.152000000
H     0.147000000    -4.723000000     0.360000000
H    -0.047000000    -5.207000000    -1.061000000
O     3.729000000     2.832000000    -4.579000000
H     4.462000000     2.793000000    -5.193000000
H     3.377000000     1.942000000    -4.570000000
O     4.662000000    -1.840000000     1.137000000
H     4.026000000    -2.525000000     0.931000000
H     4.255000000    -1.033000000     0.824000000
O     2.720000000    -2.677000000    -2.622000000
H     2.762000000    -2.752000000    -3.576000000
H     3.199000000    -1.873000000    -2.424000000
O     8.095000000     2.360000000    -3.183000000
H     7.200000000     2.126000000    -2.938000000
H     8.531000000     1.520000000    -3.327000000
O    -1.779000000    -0.376000000    -4.295000000
H    -0.952000000    -0.802000000    -4.521000000
H    -1.525000000     0.503000000    -4.011000000
O     1.102000000    -0.614000000     5.391000000
H     1.400000000     0.259000000     5.135000000
H     1.653000000    -1.213000000     4.889000000
O     0.118000000    -3.021000000     1.033000000
H    -0.411000000    -2.275000000     0.749000000
H    -0.253000000    -3.269000000     1.879000000
