158
-3046.72262
C     0.063000000    -0.386000000    -1.463000000
H    -0.063000000    -0.469000000    -2.539000000
C    -1.104000000    -0.255000000    -0.691000000
H    -2.035000000    -0.385000000    -1.237000000
C    -1.069000000     0.134000000     0.687000000
H    -1.962000000     0.292000000     1.299000000
C     0.185000000     0.133000000     1.284000000
H     0.375000000     0.364000000     2.329000000
C     1.374000000    -0.085000000     0.549000000
H     2.335000000    -0.048000000     1.055000000
C     1.327000000    -0.211000000    -0.855000000
C     2.666000000    -0.182000000    -1.641000000
O     2.658000000    -0.462000000    -2.835000000
O     3.695000000     0.093000000    -1.091000000
O    -7.923000000     0.065000000     3.334000000
H    -8.029000000    -0.887000000     3.344000000
H    -7.011000000     0.202000000     3.077000000
O     2.964000000    -1.196000000     4.417000000
H     2.245000000    -1.686000000     4.018000000
H     3.455000000    -1.852000000     4.912000000
O     1.443000000     1.678000000    -4.074000000
H     2.078000000     1.992000000    -4.718000000
H     1.846000000     0.892000000    -3.705000000
O    -4.779000000     2.705000000     0.404000000
H    -3.833000000     2.839000000     0.350000000
H    -5.153000000     3.573000000     0.257000000
O    -1.487000000    -1.171000000    -6.314000000
H    -1.163000000    -1.814000000    -5.682000000
H    -0.720000000    -0.641000000    -6.531000000
O     2.760000000    -0.756000000    -7.104000000
H     2.938000000    -0.762000000    -8.044000000
H     2.433000000    -1.636000000    -6.917000000
O     2.964000000    -3.411000000     0.130000000
H     2.481000000    -3.039000000     0.867000000
H     2.294000000    -3.595000000    -0.528000000
O    -4.541000000     5.377000000    -0.108000000
H    -3.595000000     5.420000000     0.033000000
H    -4.848000000     6.269000000     0.053000000
O    -3.387000000     0.169000000     3.551000000
H    -2.958000000    -0.441000000     4.152000000
H    -2.938000000     1.002000000     3.696000000
O     5.281000000    -1.441000000    -3.343000000
H     5.448000000    -1.374000000    -4.283000000
H     4.391000000    -1.106000000    -3.233000000
O    -3.846000000    -2.689000000     1.263000000
H    -4.203000000    -3.063000000     0.457000000
H    -4.220000000    -1.809000000     1.304000000
O     5.675000000     1.469000000    -2.904000000
H     4.892000000     1.006000000    -2.604000000
H     6.082000000     1.795000000    -2.101000000
O    -1.660000000     2.391000000     3.994000000
H    -0.741000000     2.366000000     3.725000000
H    -1.631000000     2.622000000     4.922000000
O     0.894000000     3.835000000     0.700000000
H     0.837000000     3.686000000     1.644000000
H     0.041000000     3.563000000     0.363000000
O    -4.373000000    -3.627000000     3.773000000
H    -4.325000000    -3.355000000     2.856000000
H    -3.726000000    -4.327000000     3.849000000
O    -0.308000000     2.762000000    -1.908000000
H     0.313000000     2.393000000    -2.537000000
H    -0.599000000     2.012000000    -1.391000000
O    -4.326000000     1.702000000    -4.549000000
H    -3.435000000     2.035000000    -4.648000000
H    -4.772000000     2.364000000    -4.020000000
O    -5.587000000     0.331000000    -0.464000000
H    -5.204000000     0.139000000    -1.320000000
H    -5.261000000     1.205000000    -0.247000000
O    -6.360000000    -3.557000000    -0.409000000
H    -6.628000000    -2.771000000     0.067000000
H    -6.670000000    -3.413000000    -1.303000000
O     8.359000000    -0.392000000     1.293000000
H     7.586000000     0.026000000     0.913000000
H     9.098000000     0.074000000     0.903000000
O     4.700000000     0.675000000     2.858000000
H     4.314000000    -0.073000000     3.312000000
H     4.900000000     0.346000000     1.981000000
O     0.875000000     2.717000000     3.318000000
H     1.016000000     3.525000000     3.811000000
H     1.493000000     2.093000000     3.700000000
O    -1.781000000    -1.227000000     4.930000000
H    -1.032000000    -0.955000000     5.460000000
H    -1.838000000    -2.173000000     5.063000000
O     5.574000000     4.237000000    -0.359000000
H     5.226000000     4.971000000     0.148000000
H     4.831000000     3.643000000    -0.461000000
O     0.560000000    -3.697000000    -1.245000000
H     0.623000000    -4.021000000    -2.143000000
H     0.217000000    -2.808000000    -1.335000000
O     7.484000000     1.985000000    -0.546000000
H     6.870000000     2.706000000    -0.408000000
H     8.306000000     2.294000000    -0.165000000
O    -2.300000000     3.428000000     1.385000000
H    -1.912000000     3.025000000     2.162000000
H    -1.980000000     4.330000000     1.399000000
O     8.487000000    -0.520000000    -1.732000000
H     8.054000000     0.221000000    -1.310000000
H     7.851000000    -1.234000000    -1.674000000
O    -6.990000000    -1.435000000     1.001000000
H    -6.410000000    -0.860000000     0.502000000
H    -7.834000000    -0.984000000     1.000000000
O    -2.567000000    -2.379000000    -3.143000000
H    -3.245000000    -1.726000000    -3.315000000
H    -3.051000000    -3.180000000    -2.943000000
O    -1.331000000     1.575000000    -4.409000000
H    -1.159000000     2.460000000    -4.088000000
H    -0.490000000     1.279000000    -4.758000000
O    -0.593000000    -3.290000000    -4.882000000
H    -0.434000000    -4.230000000    -4.960000000
H    -1.451000000    -3.226000000    -4.462000000
O     3.362000000     2.290000000     4.418000000
H     3.798000000     1.616000000     3.896000000
H     3.911000000     3.067000000     4.314000000
O     2.987000000     5.201000000    -2.135000000
H     2.789000000     5.949000000    -1.571000000
H     3.034000000     4.456000000    -1.536000000
O     3.310000000     2.852000000    -0.657000000
H     3.336000000     1.908000000    -0.817000000
H     2.461000000     3.000000000    -0.240000000
O     2.826000000     2.013000000    -6.564000000
H     2.859000000     1.093000000    -6.826000000
H     3.663000000     2.168000000    -6.126000000
O     5.204000000    -3.384000000    -1.425000000
H     5.165000000    -2.638000000    -2.023000000
H     4.385000000    -3.339000000    -0.931000000
O     3.795000000    -4.553000000    -3.669000000
H     3.308000000    -3.750000000    -3.858000000
H     4.543000000    -4.262000000    -3.147000000
O    -1.139000000    -3.371000000     2.083000000
H    -2.002000000    -3.034000000     1.840000000
H    -1.314000000    -3.999000000     2.783000000
O    -5.686000000     1.191000000     2.494000000
H    -5.614000000     1.424000000     1.569000000
H    -4.872000000     0.727000000     2.689000000
O     5.498000000    -0.924000000     0.534000000
H     5.559000000    -1.817000000     0.194000000
H     4.952000000    -0.462000000    -0.102000000
O     2.195000000    -2.564000000    -4.292000000
H     1.257000000    -2.752000000    -4.288000000
H     2.291000000    -1.810000000    -3.711000000
O     7.659000000     1.028000000    -4.449000000
H     6.905000000     0.984000000    -3.861000000
H     8.033000000     1.895000000    -4.296000000
O     3.959000000    -4.581000000     2.726000000
H     3.198000000    -4.047000000     2.498000000
H     4.179000000    -4.316000000     3.619000000
O    -4.767000000     4.732000000     3.664000000
H    -5.581000000     4.319000000     3.952000000
H    -4.395000000     4.116000000     3.034000000
O    -4.473000000    -0.199000000    -2.953000000
H    -5.167000000    -0.799000000    -3.226000000
H    -4.331000000     0.365000000    -3.713000000
O     0.585000000    -0.638000000     6.419000000
H     0.700000000    -0.299000000     7.307000000
H     1.420000000    -0.460000000     5.985000000
O     1.361000000    -2.455000000     2.353000000
H     1.116000000    -1.546000000     2.177000000
H     0.527000000    -2.910000000     2.467000000
