158
-3046.43309
C     0.914000000    -0.515000000    -1.017000000
H     1.515000000    -1.088000000    -1.719000000
C    -0.449000000    -0.703000000    -1.078000000
H    -0.925000000    -1.282000000    -1.865000000
C    -1.181000000    -0.163000000     0.005000000
H    -2.253000000    -0.212000000    -0.003000000
C    -0.653000000     0.551000000     1.075000000
H    -1.250000000     1.183000000     1.727000000
C     0.807000000     0.692000000     1.093000000
H     1.261000000     1.243000000     1.913000000
C     1.583000000     0.097000000     0.063000000
C     3.070000000     0.267000000     0.016000000
O     3.680000000    -0.466000000    -0.749000000
O     3.613000000     0.975000000     0.810000000
O    -6.467000000    -0.307000000     4.674000000
H    -6.073000000    -0.812000000     5.385000000
H    -5.954000000    -0.540000000     3.900000000
O     2.484000000    -1.871000000     3.806000000
H     1.664000000    -1.823000000     3.314000000
H     2.220000000    -1.787000000     4.722000000
O     7.243000000     1.440000000    -3.803000000
H     6.788000000     1.110000000    -3.029000000
H     7.047000000     0.799000000    -4.487000000
O     3.157000000     2.021000000    -3.338000000
H     3.910000000     2.587000000    -3.507000000
H     3.144000000     1.916000000    -2.387000000
O     0.521000000     2.778000000     3.721000000
H     0.548000000     3.590000000     4.227000000
H    -0.261000000     2.862000000     3.175000000
O    -7.891000000     1.414000000    -0.194000000
H    -8.151000000     2.334000000    -0.255000000
H    -7.153000000     1.414000000     0.415000000
O    -4.155000000     2.608000000    -1.616000000
H    -3.248000000     2.889000000    -1.742000000
H    -4.295000000     2.666000000    -0.671000000
O    -0.759000000     0.172000000    -4.900000000
H    -1.075000000     0.352000000    -5.786000000
H     0.187000000     0.069000000    -5.000000000
O     2.035000000    -0.132000000    -4.695000000
H     2.537000000     0.393000000    -4.071000000
H     2.454000000    -0.992000000    -4.676000000
O    -0.014000000    -2.324000000     1.987000000
H     0.168000000    -1.414000000     1.753000000
H    -0.647000000    -2.618000000     1.332000000
O     2.842000000    -3.755000000    -4.636000000
H     3.005000000    -3.638000000    -3.700000000
H     2.811000000    -4.704000000    -4.757000000
O    -5.929000000     3.781000000    -3.130000000
H    -5.744000000     4.666000000    -2.817000000
H    -5.437000000     3.210000000    -2.540000000
O     0.853000000    -4.427000000    -1.162000000
H     1.154000000    -5.317000000    -1.345000000
H     0.017000000    -4.545000000    -0.711000000
O    -4.520000000     2.359000000     1.341000000
H    -3.999000000     2.791000000     2.018000000
H    -4.511000000     1.434000000     1.586000000
O    -2.715000000     0.154000000     4.987000000
H    -2.514000000    -0.602000000     4.435000000
H    -1.860000000     0.512000000     5.225000000
O     5.776000000    -3.810000000    -2.210000000
H     4.883000000    -3.479000000    -2.117000000
H     6.050000000    -3.520000000    -3.080000000
O     5.138000000     3.873000000    -1.546000000
H     5.371000000     4.122000000    -0.652000000
H     4.264000000     4.242000000    -1.678000000
O    -3.543000000     6.039000000     1.313000000
H    -3.723000000     5.762000000     2.212000000
H    -2.761000000     5.547000000     1.063000000
O    -0.412000000     0.930000000     5.762000000
H     0.202000000     0.197000000     5.800000000
H     0.019000000     1.575000000     5.201000000
O     0.047000000     3.459000000    -1.037000000
H    -0.520000000     3.258000000    -1.782000000
H     0.006000000     2.676000000    -0.487000000
O    -0.430000000    -3.402000000    -3.331000000
H    -1.059000000    -2.742000000    -3.040000000
H     0.207000000    -3.457000000    -2.620000000
O    -1.264000000     2.778000000    -3.447000000
H    -0.859000000     1.997000000    -3.823000000
H    -0.806000000     3.509000000    -3.860000000
O     2.361000000     4.563000000    -1.405000000
H     1.644000000     3.952000000    -1.238000000
H     1.931000000     5.353000000    -1.733000000
O    -5.249000000    -0.577000000    -0.060000000
H    -4.803000000    -1.417000000    -0.169000000
H    -5.846000000    -0.524000000    -0.807000000
O     7.162000000    -0.998000000     2.848000000
H     7.953000000    -1.297000000     2.400000000
H     6.491000000    -0.985000000     2.165000000
O     3.010000000     4.125000000     3.217000000
H     2.710000000     3.241000000     3.431000000
H     2.288000000     4.694000000     3.485000000
O    -5.681000000    -3.830000000    -2.451000000
H    -6.429000000    -3.909000000    -3.043000000
H    -4.915000000    -3.940000000    -3.015000000
O    -1.717000000    -4.203000000    -0.021000000
H    -2.558000000    -3.759000000    -0.124000000
H    -1.932000000    -5.135000000    -0.063000000
O     7.598000000     2.718000000     0.391000000
H     6.910000000     3.097000000     0.938000000
H     8.325000000     2.561000000     0.994000000
O    -6.189000000     4.552000000     0.591000000
H    -5.502000000     3.948000000     0.871000000
H    -5.740000000     5.183000000     0.028000000
O    -2.634000000     3.639000000     2.989000000
H    -2.510000000     3.854000000     3.913000000
H    -1.853000000     3.984000000     2.556000000
O     6.704000000     1.383000000     3.831000000
H     5.824000000     1.162000000     3.526000000
H     7.260000000     0.686000000     3.484000000
O    -4.511000000    -3.323000000     0.019000000
H    -4.928000000    -3.903000000     0.656000000
H    -5.002000000    -3.465000000    -0.791000000
O    -4.548000000     1.342000000    -4.402000000
H    -5.289000000     1.788000000    -4.811000000
H    -4.428000000     1.794000000    -3.566000000
O    -3.226000000    -1.024000000    -4.564000000
H    -2.303000000    -0.775000000    -4.618000000
H    -3.703000000    -0.203000000    -4.689000000
O     3.731000000     0.533000000     6.567000000
H     4.575000000     0.832000000     6.905000000
H     3.675000000     0.914000000     5.691000000
O     4.998000000     3.332000000     1.204000000
H     4.597000000     2.486000000     1.007000000
H     4.440000000     3.708000000     1.885000000
O    -0.968000000     4.977000000     1.136000000
H    -0.632000000     4.660000000     0.297000000
H    -0.468000000     5.775000000     1.308000000
O     3.886000000    -3.646000000     2.270000000
H     4.545000000    -3.042000000     1.929000000
H     3.369000000    -3.117000000     2.878000000
O     5.691000000    -2.327000000     0.400000000
H     5.810000000    -2.816000000    -0.414000000
H     5.148000000    -1.579000000     0.153000000
O    -5.009000000    -0.428000000     2.544000000
H    -5.004000000    -0.551000000     1.594000000
H    -4.108000000    -0.602000000     2.813000000
O     3.984000000     0.625000000     3.551000000
H     3.821000000    -0.315000000     3.625000000
H     3.565000000     0.876000000     2.728000000
O     3.308000000    -3.059000000    -1.614000000
H     2.686000000    -3.613000000    -1.143000000
H     3.040000000    -2.165000000    -1.401000000
O     5.908000000     0.580000000    -1.700000000
H     5.200000000    -0.056000000    -1.596000000
H     5.784000000     1.196000000    -0.978000000
O    -6.173000000    -1.114000000    -3.017000000
H    -5.550000000    -0.508000000    -3.418000000
H    -5.729000000    -1.961000000    -3.036000000
O     4.311000000     3.215000000     5.479000000
H     5.202000000     3.563000000     5.440000000
H     3.885000000     3.560000000     4.694000000
O    -3.901000000    -3.766000000    -4.582000000
H    -3.809000000    -2.813000000    -4.571000000
H    -3.040000000    -4.087000000    -4.851000000
O    -2.562000000    -1.944000000     3.106000000
H    -1.684000000    -2.249000000     2.879000000
H    -3.098000000    -2.737000000     3.110000000
