158
-3051.65972
C     1.358000000    -0.486000000     0.305000000
H     2.354000000    -0.909000000     0.403000000
C     0.547000000    -0.887000000    -0.751000000
H     0.974000000    -1.581000000    -1.471000000
C    -0.716000000    -0.387000000    -0.935000000
H    -1.300000000    -0.696000000    -1.827000000
C    -1.113000000     0.609000000    -0.107000000
H    -2.098000000     1.040000000    -0.265000000
C    -0.345000000     1.049000000     0.988000000
H    -0.691000000     1.835000000     1.654000000
C     0.914000000     0.443000000     1.196000000
C     1.779000000     0.787000000     2.399000000
O     2.820000000     0.198000000     2.632000000
O     1.464000000     1.639000000     3.192000000
O     5.517000000     0.352000000     3.956000000
H     5.327000000    -0.306000000     3.287000000
H     5.204000000    -0.039000000     4.772000000
O     3.182000000     4.992000000     4.401000000
H     3.522000000     4.098000000     4.360000000
H     3.913000000     5.511000000     4.737000000
O     4.947000000     0.762000000     0.737000000
H     4.767000000     1.510000000     0.167000000
H     4.182000000     0.710000000     1.311000000
O     0.723000000     4.244000000     5.025000000
H     0.510000000     3.493000000     4.471000000
H     1.680000000     4.264000000     5.044000000
O    -5.863000000    -2.505000000    -5.509000000
H    -5.233000000    -2.805000000    -4.854000000
H    -6.263000000    -3.309000000    -5.842000000
O    -4.061000000     3.773000000     0.505000000
H    -3.563000000     3.977000000     1.296000000
H    -4.495000000     2.943000000     0.702000000
O    -3.040000000    -4.808000000     1.332000000
H    -2.861000000    -4.973000000     2.258000000
H    -2.565000000    -4.001000000     1.137000000
O     0.090000000     0.422000000    -3.963000000
H     0.466000000     1.047000000    -3.342000000
H    -0.428000000     0.961000000    -4.561000000
O    -0.559000000     0.978000000     4.835000000
H    -0.002000000     1.129000000     4.071000000
H    -0.429000000     0.054000000     5.047000000
O     7.503000000    -0.309000000     1.437000000
H     6.570000000    -0.145000000     1.301000000
H     7.629000000    -1.217000000     1.162000000
O     4.638000000     1.428000000     6.468000000
H     4.772000000     1.851000000     7.317000000
H     5.373000000     1.727000000     5.933000000
O     0.528000000     2.404000000    -2.101000000
H    -0.211000000     2.955000000    -1.846000000
H     0.504000000     1.670000000    -1.486000000
O     4.394000000     2.738000000    -1.213000000
H     4.724000000     2.982000000    -2.078000000
H     4.142000000     3.569000000    -0.811000000
O     1.447000000     4.176000000     1.492000000
H     1.355000000     3.900000000     2.404000000
H     0.549000000     4.243000000     1.170000000
O     2.460000000    -0.044000000     5.421000000
H     3.072000000     0.475000000     5.945000000
H     2.515000000     0.335000000     4.544000000
O     1.525000000    -4.321000000    -0.408000000
H     1.477000000    -5.270000000    -0.299000000
H     1.541000000    -3.977000000     0.486000000
O     4.894000000    -2.411000000    -0.706000000
H     4.436000000    -1.995000000     0.023000000
H     5.212000000    -3.240000000    -0.348000000
O    -0.174000000    -3.618000000    -6.167000000
H    -0.416000000    -3.369000000    -5.275000000
H    -0.665000000    -3.015000000    -6.725000000
O     0.736000000     2.277000000     7.155000000
H    -0.089000000     2.751000000     7.056000000
H     0.723000000     1.624000000     6.456000000
O     4.131000000    -3.301000000    -5.396000000
H     4.774000000    -2.599000000    -5.497000000
H     3.453000000    -2.926000000    -4.835000000
O     3.947000000     2.522000000     3.660000000
H     3.188000000     2.007000000     3.386000000
H     4.619000000     1.870000000     3.857000000
O    -4.543000000     0.321000000    -4.169000000
H    -5.352000000     0.779000000    -4.393000000
H    -4.644000000    -0.548000000    -4.557000000
O     0.254000000    -1.462000000     6.245000000
H     0.899000000    -0.814000000     5.962000000
H     0.429000000    -1.581000000     7.179000000
O    -5.120000000     1.062000000     0.838000000
H    -5.194000000     0.299000000     1.411000000
H    -5.631000000     0.830000000     0.063000000
O    -1.514000000     5.275000000     2.416000000
H    -2.309000000     4.861000000     2.750000000
H    -1.378000000     6.030000000     2.988000000
O     2.795000000    -3.029000000    -2.422000000
H     3.660000000    -2.926000000    -2.027000000
H     2.323000000    -3.606000000    -1.821000000
O     2.664000000    -5.793000000    -3.646000000
H     2.454000000    -4.926000000    -3.994000000
H     1.826000000    -6.257000000    -3.639000000
O    -2.422000000    -1.202000000     3.732000000
H    -3.271000000    -1.177000000     3.291000000
H    -2.139000000    -2.113000000     3.656000000
O    -3.450000000     3.651000000     3.562000000
H    -3.810000000     4.177000000     4.276000000
H    -3.440000000     2.757000000     3.904000000
O     1.991000000     3.556000000    -4.040000000
H     2.828000000     3.736000000    -3.612000000
H     1.512000000     3.015000000    -3.411000000
O    -4.045000000    -3.835000000    -3.895000000
H    -3.701000000    -3.642000000    -3.023000000
H    -3.438000000    -4.482000000    -4.254000000
O    -5.487000000    -1.493000000    -1.107000000
H    -5.446000000    -1.649000000    -0.163000000
H    -4.735000000    -1.969000000    -1.461000000
O    -0.135000000    -2.618000000    -3.610000000
H    -0.351000000    -1.722000000    -3.350000000
H     0.749000000    -2.759000000    -3.270000000
O    -3.271000000     1.345000000     4.716000000
H    -3.427000000     0.530000000     4.238000000
H    -2.341000000     1.316000000     4.942000000
O     5.282000000     4.093000000     1.792000000
H     4.756000000     3.756000000     2.518000000
H     4.644000000     4.291000000     1.107000000
O    -3.409000000     2.586000000    -3.045000000
H    -2.493000000     2.783000000    -2.852000000
H    -3.404000000     1.670000000    -3.321000000
O     3.689000000    -2.218000000     2.470000000
H     3.469000000    -1.290000000     2.391000000
H     4.114000000    -2.292000000     3.324000000
O     1.448000000    -3.960000000     2.262000000
H     1.471000000    -4.393000000     3.115000000
H     2.073000000    -3.240000000     2.342000000
O    -0.955000000    -2.757000000     1.005000000
H    -0.182000000    -3.081000000     1.468000000
H    -0.662000000    -1.947000000     0.587000000
O     2.299000000    -0.757000000    -5.232000000
H     2.994000000    -0.142000000    -4.999000000
H     1.581000000    -0.545000000    -4.635000000
O    -2.892000000    -0.360000000    -6.212000000
H    -3.152000000     0.285000000    -5.555000000
H    -2.143000000     0.039000000    -6.656000000
O     4.419000000    -2.222000000     5.111000000
H     3.672000000    -1.722000000     5.442000000
H     4.362000000    -3.064000000     5.561000000
O    -1.548000000     4.303000000    -1.303000000
H    -1.150000000     5.135000000    -1.044000000
H    -2.326000000     4.228000000    -0.751000000
O    -1.532000000    -6.586000000     0.157000000
H    -2.192000000    -6.110000000     0.661000000
H    -1.463000000    -6.101000000    -0.665000000
O    -3.444000000    -3.319000000    -1.339000000
H    -3.848000000    -3.900000000    -0.695000000
H    -2.511000000    -3.531000000    -1.301000000
O    -5.881000000     2.031000000    -1.963000000
H    -5.253000000     2.448000000    -2.554000000
H    -5.802000000     1.096000000    -2.151000000
O    -1.118000000     2.002000000    -5.980000000
H    -1.751000000     2.279000000    -6.643000000
H    -0.368000000     1.684000000    -6.484000000
O    -0.986000000    -4.511000000    -1.384000000
H    -0.598000000    -3.936000000    -0.725000000
H    -0.677000000    -4.162000000    -2.220000000
