158
-3053.24478
C     1.365000000     0.176000000     0.427000000
H     2.420000000     0.152000000     0.685000000
C     0.952000000    -0.278000000    -0.822000000
H     1.707000000    -0.653000000    -1.510000000
C    -0.386000000    -0.305000000    -1.105000000
H    -0.578000000    -0.588000000    -2.143000000
C    -1.314000000    -0.034000000    -0.105000000
H    -2.379000000    -0.004000000    -0.321000000
C    -0.891000000     0.350000000     1.141000000
H    -1.584000000     0.438000000     1.974000000
C     0.493000000     0.454000000     1.418000000
C     0.948000000     0.983000000     2.730000000
O     2.141000000     1.218000000     2.851000000
O     0.223000000     1.000000000     3.698000000
O     2.264000000     2.596000000     5.317000000
H     1.532000000     2.115000000     5.703000000
H     2.402000000     2.180000000     4.466000000
O     3.849000000     2.631000000     1.325000000
H     3.369000000     3.456000000     1.252000000
H     3.266000000     2.057000000     1.821000000
O    -1.838000000     2.554000000     3.285000000
H    -0.962000000     2.188000000     3.403000000
H    -2.189000000     2.624000000     4.173000000
O    -4.092000000    -2.254000000    -3.088000000
H    -4.279000000    -1.386000000    -2.731000000
H    -4.153000000    -2.842000000    -2.335000000
O    -3.130000000     1.004000000    -6.209000000
H    -4.081000000     0.991000000    -6.324000000
H    -2.977000000     1.695000000    -5.565000000
O     6.316000000    -2.815000000     0.565000000
H     6.459000000    -3.737000000     0.350000000
H     5.772000000    -2.484000000    -0.150000000
O    -4.750000000    -3.722000000    -0.771000000
H    -5.572000000    -4.142000000    -0.519000000
H    -4.339000000    -3.483000000     0.059000000
O    -0.813000000     2.120000000    -3.704000000
H    -0.918000000     2.444000000    -2.810000000
H    -1.042000000     2.865000000    -4.258000000
O    -0.297000000    -4.549000000    -6.769000000
H     0.641000000    -4.555000000    -6.959000000
H    -0.376000000    -4.031000000    -5.968000000
O    -5.315000000    -2.578000000     2.201000000
H    -4.472000000    -3.009000000     2.059000000
H    -5.761000000    -3.130000000     2.843000000
O     6.698000000     2.238000000     1.740000000
H     5.767000000     2.134000000     1.542000000
H     6.764000000     2.057000000     2.678000000
O     4.466000000     1.711000000     6.424000000
H     4.154000000     1.171000000     7.150000000
H     3.672000000     1.956000000     5.949000000
O    -2.328000000     3.625000000     6.075000000
H    -3.112000000     3.082000000     6.003000000
H    -2.658000000     4.495000000     6.301000000
O    -0.166000000     2.957000000    -1.146000000
H    -0.635000000     3.376000000    -0.425000000
H    -0.060000000     2.047000000    -0.866000000
O     1.485000000     0.948000000    -4.723000000
H     2.064000000     0.862000000    -3.966000000
H     0.706000000     1.385000000    -4.380000000
O     2.048000000     5.074000000     2.127000000
H     1.639000000     4.950000000     2.984000000
H     2.714000000     5.745000000     2.274000000
O    -1.811000000     3.718000000     0.908000000
H    -1.879000000     4.638000000     1.165000000
H    -1.682000000     3.249000000     1.733000000
O    -0.102000000     1.517000000     6.535000000
H    -0.586000000     2.341000000     6.481000000
H    -0.279000000     1.081000000     5.701000000
O    -5.801000000    -3.334000000    -4.998000000
H    -6.387000000    -3.900000000    -4.495000000
H    -5.163000000    -3.020000000    -4.358000000
O     2.407000000    -2.976000000     2.114000000
H     2.318000000    -3.478000000     2.925000000
H     2.851000000    -2.171000000     2.378000000
O     5.075000000    -0.943000000    -1.347000000
H     5.901000000    -0.509000000    -1.132000000
H     4.457000000    -0.225000000    -1.488000000
O    -4.416000000    -0.035000000     3.318000000
H    -5.007000000    -0.700000000     2.966000000
H    -3.540000000    -0.397000000     3.185000000
O     2.656000000     5.150000000     5.521000000
H     3.567000000     5.291000000     5.264000000
H     2.529000000     4.204000000     5.442000000
O    -6.542000000     0.757000000    -2.912000000
H    -5.627000000     1.037000000    -2.916000000
H    -7.042000000     1.573000000    -2.947000000
O    -1.478000000    -0.700000000     4.686000000
H    -0.997000000    -1.442000000     4.319000000
H    -0.908000000     0.054000000     4.534000000
O     1.801000000    -1.633000000    -4.799000000
H     1.067000000    -2.058000000    -5.241000000
H     1.618000000    -0.697000000    -4.876000000
O     1.614000000    -4.207000000    -3.996000000
H     2.000000000    -3.366000000    -4.242000000
H     1.293000000    -4.071000000    -3.104000000
O    -0.948000000    -1.410000000    -6.829000000
H    -1.179000000    -0.502000000    -6.633000000
H    -1.316000000    -1.913000000    -6.102000000
O    -5.375000000     2.785000000     1.779000000
H    -5.182000000     2.061000000     2.374000000
H    -4.794000000     2.643000000     1.032000000
O    -4.418000000     1.588000000     5.490000000
H    -4.311000000     1.165000000     4.637000000
H    -5.170000000     1.147000000     5.884000000
O    -1.503000000     3.932000000    -5.714000000
H    -0.922000000     4.647000000    -5.974000000
H    -2.291000000     4.059000000    -6.243000000
O     3.787000000     1.209000000    -2.600000000
H     4.485000000     1.565000000    -3.151000000
H     3.321000000     1.980000000    -2.278000000
O    -1.737000000    -3.071000000    -4.733000000
H    -1.253000000    -3.406000000    -3.978000000
H    -2.542000000    -2.710000000    -4.361000000
O    -3.014000000    -3.585000000     1.423000000
H    -2.994000000    -4.542000000     1.402000000
H    -2.115000000    -3.322000000     1.223000000
O     4.592000000    -2.030000000    -3.900000000
H     4.792000000    -1.682000000    -3.031000000
H     3.651000000    -1.891000000    -4.003000000
O     5.893000000     1.205000000     4.168000000
H     5.379000000     1.538000000     4.904000000
H     6.800000000     1.257000000     4.467000000
O    -3.511000000     3.234000000    -1.403000000
H    -3.118000000     3.125000000    -0.537000000
H    -4.402000000     3.536000000    -1.225000000
O     3.462000000    -0.575000000     4.211000000
H     2.832000000    -0.052000000     3.715000000
H     4.253000000    -0.036000000     4.237000000
O    -0.363000000    -2.889000000     0.903000000
H     0.523000000    -2.989000000     0.555000000
H    -0.660000000    -2.045000000     0.565000000
O     2.778000000    -2.912000000    -0.715000000
H     2.452000000    -3.175000000     0.146000000
H     2.730000000    -1.956000000    -0.707000000
O     4.932000000    -4.597000000    -1.305000000
H     4.482000000    -3.767000000    -1.150000000
H     4.248000000    -5.261000000    -1.218000000
O     5.072000000     4.206000000    -0.756000000
H     4.576000000     3.487000000    -1.149000000
H     5.449000000     3.830000000     0.039000000
O    -3.814000000     0.983000000    -3.341000000
H    -3.090000000     0.379000000    -3.180000000
H    -3.576000000     1.776000000    -2.862000000
O     2.180000000    -1.538000000     6.296000000
H     2.564000000    -1.391000000     5.432000000
H     2.341000000    -2.465000000     6.474000000
O    -3.342000000    -5.939000000    -1.874000000
H    -3.591000000    -6.643000000    -1.275000000
H    -4.037000000    -5.289000000    -1.782000000
O     2.499000000     3.377000000    -1.734000000
H     2.731000000     4.289000000    -1.906000000
H     1.583000000     3.410000000    -1.460000000
O    -0.197000000    -2.993000000     3.851000000
H     0.073000000    -3.804000000     4.282000000
H    -0.131000000    -3.186000000     2.915000000
O    -0.855000000    -4.435000000    -2.502000000
H    -1.728000000    -4.813000000    -2.395000000
H    -0.271000000    -5.053000000    -2.063000000
