158
-3014.65330
C     1.445000000    -0.074000000     0.199000000
H     2.518000000    -0.117000000     0.366000000
C     0.814000000    -0.366000000    -1.015000000
H     1.384000000    -0.694000000    -1.880000000
C    -0.558000000    -0.321000000    -1.049000000
H    -1.098000000    -0.411000000    -2.052000000
C    -1.337000000     0.028000000     0.071000000
H    -2.412000000     0.194000000     0.088000000
C    -0.663000000     0.267000000     1.259000000
H    -1.303000000     0.541000000     2.094000000
C     0.692000000     0.220000000     1.378000000
C     1.315000000     0.549000000     2.762000000
O     2.537000000     0.385000000     2.907000000
O     0.623000000     1.016000000     3.652000000
O     3.665000000     0.796000000     5.526000000
H     3.107000000     1.000000000     6.277000000
H     3.062000000     0.758000000     4.783000000
O     3.995000000     1.803000000     1.147000000
H     3.415000000     1.257000000     1.678000000
H     3.403000000     2.352000000     0.634000000
O     0.660000000     3.540000000     4.179000000
H     0.863000000     2.620000000     4.011000000
H     0.778000000     3.642000000     5.123000000
O    -3.874000000    -2.750000000    -5.698000000
H    -4.430000000    -3.349000000    -5.200000000
H    -3.468000000    -2.192000000    -5.035000000
O    -1.629000000     1.656000000    -6.337000000
H    -0.756000000     1.553000000    -5.958000000
H    -2.217000000     1.258000000    -5.696000000
O    -3.122000000    -2.345000000    -2.546000000
H    -3.348000000    -3.275000000    -2.570000000
H    -3.758000000    -1.960000000    -1.943000000
O    -0.046000000     1.998000000    -4.343000000
H    -0.345000000     1.968000000    -3.434000000
H     0.115000000     2.926000000    -4.512000000
O    -2.887000000    -1.712000000     2.236000000
H    -1.989000000    -1.662000000     1.908000000
H    -3.091000000    -2.647000000     2.233000000
O     6.933000000    -0.052000000     2.582000000
H     7.050000000    -0.130000000     1.635000000
H     6.985000000     0.889000000     2.753000000
O    -1.693000000     4.683000000     3.310000000
H    -0.881000000     4.256000000     3.583000000
H    -1.416000000     5.541000000     2.989000000
O    -0.393000000     3.695000000     6.859000000
H    -0.842000000     3.826000000     7.695000000
H    -0.624000000     4.466000000     6.340000000
O    -0.169000000     2.509000000    -1.608000000
H    -0.090000000     1.898000000    -0.875000000
H    -0.630000000     3.264000000    -1.243000000
O     2.506000000     0.206000000    -4.748000000
H     2.705000000     0.758000000    -3.991000000
H     1.550000000     0.200000000    -4.795000000
O     2.635000000     4.438000000     2.258000000
H     2.232000000     4.042000000     3.031000000
H     3.371000000     3.861000000     2.050000000
O    -2.491000000     3.041000000     1.068000000
H    -1.997000000     3.740000000     0.641000000
H    -2.169000000     3.035000000     1.969000000
O     0.709000000     0.875000000     6.317000000
H     0.638000000     1.787000000     6.600000000
H     0.602000000     0.909000000     5.367000000
O     3.284000000    -2.935000000     0.646000000
H     3.038000000    -3.796000000     0.984000000
H     3.377000000    -2.388000000     1.426000000
O    -0.167000000    -4.953000000    -1.575000000
H    -0.905000000    -5.256000000    -1.047000000
H     0.603000000    -5.328000000    -1.149000000
O     6.005000000    -1.096000000    -2.666000000
H     6.917000000    -0.884000000    -2.470000000
H     5.559000000    -0.249000000    -2.679000000
O    -3.714000000    -1.024000000     4.945000000
H    -3.740000000    -1.405000000     4.067000000
H    -2.823000000    -1.189000000     5.252000000
O     5.301000000     3.656000000     5.369000000
H     5.631000000     3.927000000     6.225000000
H     4.780000000     2.874000000     5.549000000
O    -5.606000000     0.039000000    -3.863000000
H    -4.714000000     0.385000000    -3.888000000
H    -6.052000000     0.573000000    -3.206000000
O    -1.059000000    -1.268000000     5.606000000
H    -0.677000000    -1.766000000     4.884000000
H    -0.420000000    -0.578000000     5.785000000
O     2.089000000    -4.294000000    -3.989000000
H     2.684000000    -3.593000000    -3.723000000
H     1.217000000    -3.904000000    -3.928000000
O    -0.543000000    -0.287000000    -8.171000000
H    -0.933000000     0.413000000    -7.648000000
H    -0.292000000    -0.953000000    -7.531000000
O    -4.623000000     2.114000000     5.167000000
H    -4.398000000     1.188000000     5.258000000
H    -4.920000000     2.376000000     6.038000000
O    -6.407000000    -2.368000000    -2.658000000
H    -5.995000000    -1.580000000    -3.014000000
H    -6.720000000    -2.843000000    -3.428000000
O     2.111000000    -0.559000000     8.562000000
H     2.113000000     0.389000000     8.692000000
H     1.878000000    -0.674000000     7.641000000
O     4.099000000     1.131000000    -2.729000000
H     4.778000000     1.766000000    -2.502000000
H     3.335000000     1.405000000    -2.223000000
O     0.079000000    -1.972000000    -6.092000000
H     0.983000000    -2.234000000    -6.262000000
H    -0.087000000    -2.252000000    -5.192000000
O     5.070000000    -1.356000000     6.940000000
H     4.512000000    -0.762000000     6.438000000
H     4.458000000    -1.926000000     7.404000000
O    -5.198000000    -0.053000000     1.668000000
H    -5.773000000    -0.809000000     1.546000000
H    -4.391000000    -0.422000000     2.026000000
O     4.363000000    -1.614000000    -4.809000000
H     5.114000000    -1.495000000    -4.228000000
H     3.766000000    -0.902000000    -4.578000000
O    -3.811000000     2.885000000    -1.855000000
H    -3.358000000     2.810000000    -1.015000000
H    -4.106000000     3.795000000    -1.889000000
O     4.535000000    -1.565000000     2.841000000
H     3.888000000    -0.875000000     2.987000000
H     5.370000000    -1.101000000     2.774000000
O     0.061000000    -2.900000000     1.230000000
H     0.455000000    -3.508000000     0.605000000
H     0.255000000    -2.032000000     0.875000000
O     2.904000000     1.387000000    -7.213000000
H     2.434000000     1.260000000    -6.388000000
H     2.881000000     0.529000000    -7.636000000
O     3.738000000    -3.268000000    -1.912000000
H     3.407000000    -3.260000000    -1.014000000
H     4.495000000    -2.684000000    -1.894000000
O     6.786000000     2.015000000     0.661000000
H     7.032000000     2.401000000     1.501000000
H     5.850000000     1.834000000     0.745000000
O    -3.022000000     0.720000000    -4.046000000
H    -2.755000000    -0.174000000    -3.830000000
H    -2.793000000     1.232000000    -3.270000000
O     1.949000000    -2.157000000     5.057000000
H     2.558000000    -1.690000000     4.485000000
H     1.131000000    -2.188000000     4.560000000
O    -6.039000000     3.429000000     1.092000000
H    -5.536000000     2.688000000     0.756000000
H    -5.451000000     3.854000000     1.716000000
O     2.745000000     2.802000000    -1.093000000
H     3.295000000     3.516000000    -1.417000000
H     1.872000000     3.001000000    -1.431000000
O    -3.580000000    -5.307000000    -2.265000000
H    -4.017000000    -5.747000000    -2.994000000
H    -3.357000000    -6.012000000    -1.658000000
O    -0.470000000    -3.251000000     3.775000000
H    -0.730000000    -4.167000000     3.879000000
H    -0.286000000    -3.159000000     2.840000000
O    -5.612000000    -0.359000000    -6.680000000
H    -5.951000000    -1.253000000    -6.721000000
H    -5.351000000    -0.244000000    -5.766000000
O    -0.442000000    -2.857000000    -3.367000000
H    -1.275000000    -2.479000000    -3.085000000
H    -0.311000000    -3.606000000    -2.786000000
O    -2.483000000    -0.087000000     8.063000000
H    -2.386000000    -0.066000000     7.111000000
H    -3.288000000    -0.583000000     8.211000000
