158
-3044.06834
C     1.069000000    -0.664000000    -0.775000000
H     1.784000000    -1.235000000    -1.362000000
C    -0.300000000    -0.887000000    -0.863000000
H    -0.620000000    -1.642000000    -1.576000000
C    -1.214000000    -0.189000000    -0.084000000
H    -2.268000000    -0.388000000    -0.208000000
C    -0.764000000     0.885000000     0.639000000
H    -1.410000000     1.547000000     1.209000000
C     0.590000000     1.137000000     0.715000000
H     0.878000000     2.035000000     1.256000000
C     1.525000000     0.249000000     0.087000000
C     2.972000000     0.597000000     0.199000000
O     3.818000000    -0.050000000    -0.323000000
O     3.326000000     1.413000000     1.005000000
O     7.324000000    -2.057000000     2.096000000
H     7.414000000    -1.106000000     2.166000000
H     6.438000000    -2.188000000     1.757000000
O     4.312000000    -1.684000000    -2.345000000
H     5.254000000    -1.828000000    -2.254000000
H     4.084000000    -1.121000000    -1.605000000
O     4.891000000     5.396000000     1.932000000
H     5.747000000     5.801000000     2.067000000
H     4.996000000     4.876000000     1.135000000
O    -2.393000000     3.381000000    -0.610000000
H    -2.637000000     4.304000000    -0.682000000
H    -1.440000000     3.391000000    -0.523000000
O    -5.811000000     1.373000000    -2.827000000
H    -5.567000000     1.781000000    -1.996000000
H    -5.238000000     1.785000000    -3.474000000
O    -0.217000000    -4.538000000    -1.065000000
H    -0.157000000    -3.897000000    -0.356000000
H     0.662000000    -4.913000000    -1.123000000
O     2.275000000     0.068000000    -3.459000000
H     2.950000000    -0.473000000    -3.051000000
H     2.044000000     0.709000000    -2.787000000
O     0.271000000     4.432000000    -0.131000000
H     0.874000000     4.522000000     0.606000000
H     0.327000000     5.269000000    -0.592000000
O    -0.852000000     0.485000000     4.290000000
H    -0.016000000     0.840000000     3.985000000
H    -0.620000000    -0.341000000     4.714000000
O     7.108000000    -2.043000000    -2.268000000
H     7.627000000    -2.082000000    -1.465000000
H     7.482000000    -1.312000000    -2.760000000
O    -4.810000000    -2.571000000     0.884000000
H    -5.651000000    -3.018000000     0.975000000
H    -5.039000000    -1.645000000     0.801000000
O    -5.883000000     3.328000000     2.600000000
H    -4.945000000     3.492000000     2.503000000
H    -6.029000000     3.322000000     3.546000000
O     7.215000000     2.797000000     2.015000000
H     7.082000000     3.200000000     2.873000000
H     7.561000000     3.503000000     1.469000000
O     4.811000000     3.630000000    -0.142000000
H     4.322000000     2.931000000     0.293000000
H     4.744000000     3.426000000    -1.074000000
O     2.731000000     0.799000000     3.561000000
H     3.272000000     1.340000000     4.137000000
H     2.920000000     1.123000000     2.681000000
O    -2.921000000    -4.890000000     1.028000000
H    -2.613000000    -4.963000000     1.931000000
H    -3.855000000    -4.696000000     1.108000000
O    -4.883000000    -0.699000000    -5.077000000
H    -4.799000000     0.160000000    -4.662000000
H    -5.823000000    -0.877000000    -5.068000000
O     3.561000000    -3.274000000    -4.345000000
H     3.712000000    -2.684000000    -3.606000000
H     2.836000000    -3.831000000    -4.062000000
O    -0.665000000     1.957000000    -2.853000000
H    -0.560000000     1.543000000    -1.996000000
H    -0.873000000     1.234000000    -3.445000000
O    -5.544000000     0.142000000     0.782000000
H    -5.315000000     0.732000000     0.064000000
H    -4.997000000     0.430000000     1.512000000
O     1.961000000     3.916000000     4.592000000
H     2.818000000     3.852000000     5.014000000
H     1.429000000     4.423000000     5.205000000
O    -2.834000000    -4.249000000    -2.021000000
H    -1.881000000    -4.302000000    -1.947000000
H    -3.137000000    -4.119000000    -1.122000000
O     5.677000000     0.549000000     2.680000000
H     4.816000000     0.755000000     2.315000000
H     6.235000000     1.276000000     2.402000000
O    -3.847000000    -1.677000000    -2.670000000
H    -4.165000000    -1.968000000    -1.816000000
H    -4.635000000    -1.405000000    -3.140000000
O    -3.075000000     3.127000000     2.290000000
H    -2.904000000     3.319000000     1.368000000
H    -2.306000000     3.463000000     2.751000000
O     0.053000000    -3.028000000     0.908000000
H     0.566000000    -2.992000000     1.715000000
H    -0.621000000    -2.357000000     1.023000000
O    -3.316000000     0.454000000     2.704000000
H    -2.433000000     0.169000000     2.939000000
H    -3.276000000     1.410000000     2.740000000
O    -6.099000000    -3.273000000    -2.718000000
H    -5.205000000    -3.605000000    -2.646000000
H    -6.457000000    -3.715000000    -3.488000000
O     2.131000000    -1.204000000    -5.884000000
H     2.290000000    -0.803000000    -5.029000000
H     2.023000000    -2.136000000    -5.695000000
O    -8.337000000    -1.003000000     1.154000000
H    -8.564000000    -0.836000000     0.239000000
H    -7.478000000    -0.596000000     1.267000000
O    -0.774000000     4.150000000     3.573000000
H    -1.096000000     4.200000000     4.473000000
H     0.142000000     3.886000000     3.660000000
O     6.247000000     0.943000000    -0.671000000
H     5.393000000     0.533000000    -0.533000000
H     6.455000000     1.353000000     0.168000000
O    -3.439000000    -2.645000000     3.389000000
H    -3.813000000    -3.084000000     2.626000000
H    -3.768000000    -1.748000000     3.335000000
O    -2.391000000     2.006000000     6.140000000
H    -1.900000000     1.726000000     5.367000000
H    -3.245000000     1.582000000     6.047000000
O    -1.121000000    -2.264000000    -5.246000000
H    -1.046000000    -2.496000000    -6.172000000
H    -0.283000000    -2.524000000    -4.865000000
O     4.845000000    -2.108000000     1.181000000
H     4.327000000    -1.564000000     0.588000000
H     4.571000000    -3.004000000     0.985000000
O     2.225000000    -5.798000000    -1.199000000
H     2.057000000    -6.503000000    -0.573000000
H     2.970000000    -5.324000000    -0.831000000
O     2.629000000    -1.748000000     2.772000000
H     2.441000000    -0.812000000     2.844000000
H     3.477000000    -1.788000000     2.329000000
O    -4.985000000     2.499000000    -0.440000000
H    -4.106000000     2.838000000    -0.611000000
H    -5.413000000     3.190000000     0.065000000
O     0.855000000    -3.925000000    -3.838000000
H     0.557000000    -3.636000000    -2.975000000
H     0.575000000    -4.839000000    -3.894000000
O     6.485000000     1.367000000    -3.184000000
H     5.692000000     1.795000000    -3.508000000
H     6.360000000     1.318000000    -2.236000000
O     5.383000000    -0.723000000     4.956000000
H     5.525000000    -0.032000000     5.604000000
H     5.441000000    -0.275000000     4.112000000
O     2.177000000     4.659000000     2.094000000
H     2.093000000     4.266000000     2.963000000
H     3.120000000     4.700000000     1.939000000
O     2.136000000     2.271000000    -1.879000000
H     1.989000000     2.959000000    -2.528000000
H     1.656000000     2.565000000    -1.105000000
O    -2.161000000    -0.152000000    -4.020000000
H    -1.585000000    -0.825000000    -4.383000000
H    -2.748000000    -0.629000000    -3.435000000
O     4.208000000    -4.508000000     0.120000000
H     4.858000000    -4.182000000    -0.502000000
H     4.663000000    -5.198000000     0.602000000
O    -4.642000000     0.678000000     5.404000000
H    -4.327000000     0.743000000     4.502000000
H    -5.577000000     0.493000000     5.319000000
O    -7.837000000    -0.747000000    -1.606000000
H    -7.361000000    -0.175000000    -2.208000000
H    -7.557000000    -1.631000000    -1.843000000
