158
-3026.79974
C     0.946000000    -1.145000000    -0.127000000
H     1.625000000    -1.993000000    -0.116000000
C    -0.303000000    -1.152000000    -0.632000000
H    -0.735000000    -2.001000000    -1.157000000
C    -1.057000000     0.021000000    -0.542000000
H    -1.965000000    -0.079000000    -1.174000000
C    -0.521000000     1.162000000     0.046000000
H    -1.109000000     2.076000000     0.022000000
C     0.645000000     1.130000000     0.757000000
H     1.008000000     1.988000000     1.317000000
C     1.391000000    -0.048000000     0.621000000
C     2.689000000    -0.050000000     1.413000000
O     3.459000000    -0.995000000     1.376000000
O     2.877000000     0.920000000     2.169000000
O     6.049000000     2.803000000     0.522000000
H     6.476000000     2.214000000    -0.100000000
H     5.302000000     3.159000000     0.040000000
O    -7.728000000     2.441000000    -0.724000000
H    -6.884000000     2.827000000    -0.957000000
H    -7.605000000     2.117000000     0.168000000
O    -3.220000000     3.277000000     1.036000000
H    -2.571000000     3.970000000     0.917000000
H    -3.453000000     3.011000000     0.146000000
O     1.384000000     0.777000000    -2.641000000
H     0.710000000     0.649000000    -1.974000000
H     1.494000000     1.726000000    -2.692000000
O     4.928000000    -1.491000000    -0.792000000
H     4.251000000    -1.686000000    -1.439000000
H     4.444000000    -1.306000000     0.013000000
O    -1.100000000     2.908000000     5.640000000
H    -0.393000000     2.448000000     5.186000000
H    -1.618000000     3.302000000     4.938000000
O    -4.464000000    -0.871000000    -4.348000000
H    -4.482000000    -0.791000000    -3.394000000
H    -3.566000000    -0.647000000    -4.591000000
O    -5.471000000     0.024000000    -1.861000000
H    -5.167000000     0.891000000    -1.593000000
H    -5.773000000    -0.385000000    -1.050000000
O     7.390000000    -0.477000000    -0.548000000
H     6.445000000    -0.628000000    -0.564000000
H     7.538000000     0.190000000    -1.219000000
O    -6.309000000    -1.516000000     0.342000000
H    -5.457000000    -1.934000000     0.465000000
H    -6.924000000    -2.083000000     0.807000000
O     2.191000000     4.258000000     5.533000000
H     2.787000000     4.721000000     4.945000000
H     2.103000000     3.387000000     5.147000000
O     5.757000000     1.734000000     2.760000000
H     4.875000000     1.391000000     2.621000000
H     6.014000000     2.086000000     1.907000000
O    -3.978000000    -4.233000000    -2.467000000
H    -4.010000000    -3.553000000    -1.795000000
H    -3.362000000    -4.881000000    -2.124000000
O    -3.317000000     3.489000000    -5.417000000
H    -3.128000000     3.791000000    -4.528000000
H    -4.249000000     3.671000000    -5.539000000
O     3.252000000    -4.423000000    -0.862000000
H     3.385000000    -4.211000000     0.062000000
H     3.583000000    -5.317000000    -0.953000000
O     2.893000000    -3.567000000    -3.456000000
H     3.120000000    -2.661000000    -3.666000000
H     2.835000000    -3.584000000    -2.501000000
O    -2.069000000     1.006000000    -5.345000000
H    -1.861000000     0.685000000    -6.222000000
H    -2.583000000     1.800000000    -5.496000000
O    -0.932000000    -0.388000000     4.079000000
H    -1.322000000    -0.309000000     4.949000000
H    -1.538000000     0.076000000     3.501000000
O    -4.205000000     2.574000000    -1.495000000
H    -4.871000000     3.109000000    -1.927000000
H    -3.420000000     2.689000000    -2.030000000
O    -2.158000000    -6.177000000     0.229000000
H    -2.374000000    -5.737000000     1.051000000
H    -1.626000000    -5.542000000    -0.249000000
O     6.710000000    -1.556000000     3.849000000
H     6.471000000    -0.629000000     3.847000000
H     6.038000000    -1.977000000     3.311000000
O     1.448000000     1.919000000     4.063000000
H     0.837000000     1.211000000     3.855000000
H     2.220000000     1.733000000     3.529000000
O    -4.969000000     4.414000000     2.792000000
H    -5.222000000     5.284000000     2.482000000
H    -4.488000000     4.030000000     2.058000000
O     1.219000000    -2.492000000     4.539000000
H     0.468000000    -1.901000000     4.488000000
H     1.223000000    -2.797000000     5.446000000
O    -3.097000000     0.719000000     2.633000000
H    -3.028000000     0.558000000     1.692000000
H    -2.986000000     1.665000000     2.723000000
O     1.151000000    -5.519000000    -4.100000000
H     1.988000000    -5.128000000    -3.853000000
H     0.496000000    -4.880000000    -3.820000000
O    -7.449000000     1.062000000     1.709000000
H    -7.258000000     1.719000000     2.378000000
H    -6.752000000     0.412000000     1.806000000
O     2.792000000    -4.820000000     3.178000000
H     2.223000000    -4.216000000     3.656000000
H     3.348000000    -4.254000000     2.643000000
O     0.503000000     4.075000000    -2.694000000
H     1.235000000     4.002000000    -2.081000000
H     0.747000000     4.796000000    -3.274000000
O    -8.073000000    -0.736000000    -2.958000000
H    -7.310000000    -0.364000000    -2.516000000
H    -7.918000000    -0.568000000    -3.887000000
O    -4.815000000    -3.472000000    -4.891000000
H    -4.382000000    -3.768000000    -4.090000000
H    -4.762000000    -2.517000000    -4.853000000
O    -4.017000000    -3.088000000     0.508000000
H    -4.283000000    -3.672000000     1.219000000
H    -3.061000000    -3.080000000     0.549000000
O     4.793000000    -0.454000000     6.367000000
H     3.980000000    -0.151000000     6.772000000
H     4.519000000    -0.823000000     5.528000000
O     3.977000000     5.100000000     3.596000000
H     4.902000000     5.050000000     3.357000000
H     3.682000000     5.939000000     3.241000000
O    -5.687000000    -0.371000000     3.786000000
H    -5.912000000    -0.136000000     4.686000000
H    -4.943000000     0.190000000     3.570000000
O     2.991000000     3.638000000     1.235000000
H     3.463000000     4.121000000     1.913000000
H     2.894000000     2.756000000     1.593000000
O     1.330000000    -6.764000000     1.695000000
H     1.350000000    -7.316000000     2.476000000
H     1.689000000    -5.925000000     1.985000000
O    -0.490000000     4.468000000     0.386000000
H    -0.337000000     5.221000000    -0.185000000
H    -0.463000000     3.712000000    -0.201000000
O    -1.007000000     4.531000000     3.097000000
H    -0.240000000     4.955000000     3.482000000
H    -0.855000000     4.572000000     2.153000000
O     6.940000000    -2.870000000     0.739000000
H     7.184000000    -2.193000000     0.108000000
H     7.208000000    -3.691000000     0.326000000
O     4.481000000    -3.474000000     1.711000000
H     4.125000000    -2.594000000     1.592000000
H     5.424000000    -3.370000000     1.580000000
O     2.950000000     4.596000000    -1.367000000
H     3.168000000     5.523000000    -1.268000000
H     3.005000000     4.241000000    -0.480000000
O    -1.979000000     2.651000000    -2.940000000
H    -1.906000000     2.005000000    -3.642000000
H    -1.124000000     3.081000000    -2.919000000
O     5.810000000     1.921000000     5.347000000
H     5.179000000     1.247000000     5.601000000
H     5.964000000     1.767000000     4.415000000
O     3.399000000    -0.815000000    -3.020000000
H     4.043000000    -0.173000000    -2.719000000
H     2.553000000    -0.393000000    -2.872000000
O    -1.337000000    -3.581000000     1.086000000
H    -1.306000000    -2.846000000     1.698000000
H    -1.424000000    -4.353000000     1.643000000
O     3.654000000    -1.316000000     4.098000000
H     3.540000000    -1.126000000     3.166000000
H     2.816000000    -1.690000000     4.370000000
O    -0.572000000    -4.625000000    -1.486000000
H    -0.008000000    -5.154000000    -0.923000000
H    -0.435000000    -3.726000000    -1.188000000
