158
-3028.41640
C     1.315000000    -0.142000000    -0.788000000
H     2.230000000    -0.431000000    -1.299000000
C     0.184000000    -0.899000000    -0.979000000
H     0.154000000    -1.703000000    -1.711000000
C    -1.011000000    -0.615000000    -0.309000000
H    -1.896000000    -1.258000000    -0.502000000
C    -1.057000000     0.407000000     0.654000000
H    -1.991000000     0.729000000     1.108000000
C     0.142000000     1.084000000     0.969000000
H     0.106000000     1.776000000     1.806000000
C     1.329000000     0.812000000     0.270000000
C     2.583000000     1.556000000     0.652000000
O     3.625000000     1.140000000     0.262000000
O     2.444000000     2.591000000     1.265000000
O     6.879000000     5.213000000     0.413000000
H     6.128000000     4.831000000    -0.043000000
H     7.585000000     4.579000000     0.283000000
O    -3.399000000     4.682000000     2.097000000
H    -2.960000000     4.319000000     1.327000000
H    -4.036000000     5.300000000     1.740000000
O     0.293000000     3.650000000    -4.335000000
H    -0.562000000     3.900000000    -4.686000000
H     0.091000000     3.042000000    -3.623000000
O     5.157000000     2.849000000    -0.651000000
H     5.907000000     2.320000000    -0.920000000
H     4.651000000     2.274000000    -0.077000000
O     1.767000000     1.416000000    -5.399000000
H     1.060000000     2.061000000    -5.371000000
H     2.261000000     1.567000000    -4.594000000
O     0.155000000     7.175000000     1.168000000
H     0.600000000     6.327000000     1.185000000
H     0.304000000     7.506000000     0.282000000
O    -4.906000000     1.016000000    -2.866000000
H    -4.018000000     1.342000000    -3.012000000
H    -4.792000000     0.258000000    -2.292000000
O    -4.823000000    -1.515000000    -0.864000000
H    -4.563000000    -2.043000000    -0.110000000
H    -5.501000000    -0.931000000    -0.525000000
O     5.815000000    -0.316000000    -3.586000000
H     4.990000000    -0.447000000    -4.054000000
H     5.898000000     0.634000000    -3.509000000
O     3.078000000     5.467000000     4.171000000
H     2.186000000     5.176000000     3.979000000
H     3.619000000     5.036000000     3.509000000
O    -1.021000000    -4.354000000    -5.211000000
H    -0.968000000    -5.084000000    -5.828000000
H    -1.451000000    -4.723000000    -4.440000000
O     0.787000000     1.962000000     5.081000000
H     0.103000000     1.602000000     4.518000000
H     1.542000000     1.392000000     4.937000000
O     4.369000000     4.257000000     2.010000000
H     3.868000000     3.483000000     1.752000000
H     4.306000000     4.845000000     1.257000000
O    -2.303000000    -0.403000000    -4.256000000
H    -2.722000000    -1.154000000    -3.837000000
H    -1.539000000    -0.772000000    -4.700000000
O    -1.440000000     1.011000000     3.721000000
H    -2.274000000     1.162000000     3.277000000
H    -1.342000000     0.059000000     3.730000000
O     2.681000000    -2.870000000    -3.072000000
H     2.339000000    -2.811000000    -2.180000000
H     3.554000000    -3.250000000    -2.969000000
O    -3.539000000    -2.507000000    -2.928000000
H    -3.751000000    -2.057000000    -2.111000000
H    -4.286000000    -3.085000000    -3.084000000
O    -6.157000000    -4.210000000    -1.664000000
H    -5.649000000    -3.765000000    -0.985000000
H    -6.073000000    -5.140000000    -1.454000000
O     0.810000000     4.275000000     3.175000000
H     0.992000000     3.833000000     2.346000000
H     0.377000000     3.610000000     3.710000000
O    -4.978000000     1.208000000     2.056000000
H    -5.556000000     1.715000000     2.627000000
H    -5.453000000     1.149000000     1.227000000
O     1.628000000    -0.679000000     3.855000000
H     0.788000000    -1.032000000     3.561000000
H     1.613000000    -0.787000000     4.806000000
O    -0.583000000    -1.694000000    -5.743000000
H     0.138000000    -1.643000000    -6.370000000
H    -0.720000000    -2.632000000    -5.611000000
O    -2.787000000    -6.150000000     0.560000000
H    -2.286000000    -6.026000000    -0.246000000
H    -2.147000000    -6.480000000     1.191000000
O    -4.024000000     3.160000000     4.612000000
H    -3.363000000     3.395000000     3.961000000
H    -4.725000000     2.752000000     4.105000000
O    -0.750000000     1.528000000    -2.857000000
H    -1.120000000     0.833000000    -3.402000000
H    -0.383000000     1.069000000    -2.101000000
O    -4.986000000     3.101000000    -0.095000000
H    -5.150000000     4.044000000    -0.054000000
H    -4.055000000     3.011000000     0.110000000
O    -3.371000000    -6.001000000    -3.935000000
H    -4.309000000    -6.147000000    -4.050000000
H    -3.314000000    -5.183000000    -3.442000000
O     3.409000000    -1.723000000     1.929000000
H     2.879000000    -1.383000000     2.650000000
H     3.442000000    -1.005000000     1.296000000
O    -6.783000000     0.214000000     0.083000000
H    -7.347000000     0.734000000     0.656000000
H    -6.980000000     0.530000000    -0.798000000
O     3.571000000    -0.959000000    -5.048000000
H     2.868000000    -0.419000000    -4.686000000
H     3.504000000    -1.788000000    -4.575000000
O     5.724000000     3.032000000     4.842000000
H     4.962000000     2.813000000     4.306000000
H     5.816000000     3.981000000     4.752000000
O     2.177000000    -3.769000000    -0.355000000
H     2.987000000    -3.363000000    -0.048000000
H     1.580000000    -3.708000000     0.391000000
O    -3.466000000    -1.669000000     4.136000000
H    -4.299000000    -1.533000000     3.683000000
H    -3.583000000    -1.244000000     4.985000000
O     0.954000000     4.576000000     0.271000000
H     1.504000000     5.201000000    -0.201000000
H     1.571000000     3.942000000     0.635000000
O    -4.505000000    -3.774000000     0.819000000
H    -4.002000000    -4.577000000     0.951000000
H    -5.152000000    -3.777000000     1.524000000
O     7.097000000     0.405000000     3.529000000
H     6.445000000     1.101000000     3.449000000
H     6.713000000    -0.213000000     4.152000000
O    -1.816000000     4.414000000    -0.099000000
H    -1.670000000     4.976000000    -0.860000000
H    -0.941000000     4.126000000     0.159000000
O    -5.992000000    -1.082000000     3.156000000
H    -5.556000000    -0.282000000     2.863000000
H    -6.596000000    -1.300000000     2.446000000
O     7.716000000     1.519000000    -0.816000000
H     7.877000000     1.226000000     0.081000000
H     8.260000000     0.946000000    -1.356000000
O     5.433000000    -0.809000000    -0.720000000
H     5.004000000    -0.116000000    -0.219000000
H     5.271000000    -0.579000000    -1.635000000
O     0.034000000    -6.102000000    -0.999000000
H     0.554000000    -5.324000000    -0.798000000
H     0.596000000    -6.837000000    -0.751000000
O    -6.182000000    -0.458000000    -4.674000000
H    -6.664000000    -1.036000000    -4.081000000
H    -5.859000000     0.246000000    -4.111000000
O     3.998000000     5.280000000    -0.526000000
H     3.811000000     5.632000000    -1.396000000
H     4.280000000     4.380000000    -0.687000000
O     3.121000000     1.835000000    -2.960000000
H     3.965000000     2.265000000    -2.827000000
H     2.985000000     1.322000000    -2.163000000
O    -1.043000000    -1.688000000     2.958000000
H    -0.903000000    -2.157000000     2.136000000
H    -1.960000000    -1.853000000     3.175000000
O     3.531000000     1.378000000     3.629000000
H     3.184000000     1.882000000     2.892000000
H     2.920000000     0.647000000     3.728000000
O     0.705000000    -3.944000000     1.816000000
H     0.724000000    -3.559000000     2.693000000
H     0.271000000    -4.788000000     1.935000000
O     1.583000000    -4.889000000    -4.503000000
H     0.692000000    -4.653000000    -4.761000000
H     1.919000000    -4.110000000    -4.061000000
