158
-2992.66632
C     1.490000000    -0.320000000     0.234000000
H     2.477000000    -0.672000000     0.524000000
C     0.633000000    -0.972000000    -0.696000000
H     0.897000000    -1.914000000    -1.170000000
C    -0.674000000    -0.532000000    -0.877000000
H    -1.310000000    -1.006000000    -1.646000000
C    -1.162000000     0.522000000    -0.124000000
H    -2.184000000     0.829000000    -0.332000000
C    -0.364000000     1.215000000     0.691000000
H    -0.665000000     2.195000000     1.053000000
C     0.935000000     0.749000000     0.971000000
C     1.739000000     1.314000000     2.076000000
O     2.927000000     1.051000000     2.306000000
O     1.285000000     2.124000000     2.854000000
O    -3.058000000     5.491000000     2.249000000
H    -2.620000000     5.731000000     1.433000000
H    -3.787000000     6.107000000     2.320000000
O    -2.634000000    -0.631000000    -6.553000000
H    -3.357000000    -1.231000000    -6.739000000
H    -1.975000000    -1.177000000    -6.122000000
O     1.123000000     4.089000000    -1.194000000
H     0.700000000     3.249000000    -1.369000000
H     0.996000000     4.231000000    -0.256000000
O     4.831000000     3.104000000     1.634000000
H     5.337000000     2.770000000     0.893000000
H     4.140000000     2.454000000     1.764000000
O    -1.168000000     3.933000000     7.466000000
H    -1.105000000     3.498000000     8.316000000
H    -0.385000000     3.650000000     6.994000000
O     1.705000000     0.981000000    -5.305000000
H     1.083000000     0.979000000    -4.577000000
H     2.563000000     1.045000000    -4.887000000
O    -3.718000000     2.065000000    -6.111000000
H    -4.254000000     2.314000000    -5.358000000
H    -3.542000000     1.133000000    -5.982000000
O    -0.846000000     5.450000000     3.720000000
H    -1.235000000     4.809000000     4.315000000
H    -1.549000000     5.666000000     3.108000000
O    -5.996000000     0.863000000    -2.253000000
H    -5.223000000     1.312000000    -1.910000000
H    -6.162000000     0.160000000    -1.625000000
O    -5.238000000    -1.430000000    -0.605000000
H    -4.463000000    -1.596000000    -0.069000000
H    -5.936000000    -1.928000000    -0.178000000
O     3.519000000     6.238000000     4.585000000
H     3.200000000     5.457000000     4.132000000
H     3.307000000     6.961000000     3.995000000
O     5.641000000    -3.606000000    -1.405000000
H     5.533000000    -4.025000000    -2.258000000
H     4.940000000    -3.973000000    -0.866000000
O     3.051000000     0.177000000     6.788000000
H     3.704000000    -0.521000000     6.728000000
H     2.210000000    -0.279000000     6.750000000
O     3.138000000     3.794000000     3.665000000
H     2.323000000     3.345000000     3.439000000
H     3.739000000     3.571000000     2.954000000
O    -1.173000000    -2.065000000    -4.857000000
H    -1.360000000    -2.983000000    -4.660000000
H    -0.288000000    -2.073000000    -5.222000000
O    -5.353000000    -4.150000000    -2.575000000
H    -5.032000000    -3.250000000    -2.521000000
H    -6.225000000    -4.118000000    -2.180000000
O     3.213000000    -3.261000000     0.197000000
H     3.643000000    -2.663000000     0.808000000
H     2.395000000    -3.501000000     0.632000000
O     3.323000000    -1.332000000    -2.607000000
H     2.474000000    -0.957000000    -2.373000000
H     3.396000000    -2.117000000    -2.064000000
O    -1.871000000     0.826000000     5.708000000
H    -1.721000000     0.684000000     6.643000000
H    -1.956000000    -0.055000000     5.343000000
O    -4.276000000     2.715000000    -1.353000000
H    -4.600000000     3.561000000    -1.042000000
H    -3.915000000     2.901000000    -2.220000000
O    -1.666000000    -3.438000000    -0.751000000
H    -2.291000000    -2.914000000    -0.250000000
H    -0.957000000    -3.621000000    -0.135000000
O    -3.784000000    -4.746000000    -4.727000000
H    -4.190000000    -4.438000000    -3.916000000
H    -4.472000000    -4.658000000    -5.387000000
O     0.160000000     2.464000000     5.320000000
H    -0.632000000     1.932000000     5.400000000
H     0.517000000     2.233000000     4.462000000
O     1.823000000    -1.971000000     4.763000000
H     2.621000000    -1.503000000     5.008000000
H     1.178000000    -1.703000000     5.419000000
O     1.391000000    -4.200000000    -4.633000000
H     1.584000000    -3.452000000    -5.199000000
H     1.671000000    -4.962000000    -5.141000000
O    -3.807000000     2.648000000     5.377000000
H    -3.088000000     2.029000000     5.509000000
H    -3.920000000     2.684000000     4.427000000
O    -0.021000000     1.328000000    -3.309000000
H    -0.766000000     1.826000000    -3.647000000
H    -0.366000000     0.874000000    -2.540000000
O    -6.268000000     1.870000000     0.985000000
H    -6.540000000     2.784000000     0.897000000
H    -5.542000000     1.775000000     0.369000000
O     1.642000000    -3.469000000     2.537000000
H     1.623000000    -2.948000000     3.340000000
H     2.438000000    -3.995000000     2.611000000
O     4.639000000    -4.158000000    -3.814000000
H     3.889000000    -3.631000000    -3.537000000
H     4.257000000    -4.987000000    -4.101000000
O    -5.815000000    -1.555000000    -4.401000000
H    -6.504000000    -1.399000000    -3.755000000
H    -5.003000000    -1.335000000    -3.945000000
O     6.813000000     0.934000000     4.402000000
H     5.871000000     0.786000000     4.488000000
H     6.883000000     1.782000000     3.964000000
O    -3.061000000    -1.805000000     1.213000000
H    -3.513000000    -2.285000000     1.907000000
H    -2.595000000    -1.105000000     1.671000000
O     2.093000000     4.086000000     6.385000000
H     2.670000000     4.219000000     5.632000000
H     1.440000000     3.457000000     6.079000000
O     0.744000000     4.361000000     1.328000000
H     1.203000000     5.043000000     1.819000000
H     0.801000000     3.585000000     1.886000000
O     1.705000000    -6.102000000    -0.541000000
H     0.934000000    -5.749000000    -0.097000000
H     1.812000000    -5.547000000    -1.314000000
O    -0.083000000    -4.943000000     1.112000000
H     0.449000000    -4.296000000     1.576000000
H    -0.593000000    -5.372000000     1.799000000
O    -1.251000000     6.450000000     0.249000000
H    -0.780000000     6.188000000    -0.542000000
H    -0.805000000     5.987000000     0.958000000
O     6.879000000    -0.756000000     1.810000000
H     7.350000000    -0.192000000     2.423000000
H     7.349000000    -0.654000000     0.982000000
O     4.357000000    -1.628000000     1.847000000
H     3.922000000    -0.823000000     2.129000000
H     5.289000000    -1.406000000     1.840000000
O    -3.380000000    -5.390000000    -0.905000000
H    -4.046000000    -5.037000000    -1.494000000
H    -2.823000000    -4.640000000    -0.695000000
O    -2.319000000     3.120000000    -3.731000000
H    -2.218000000     3.012000000    -4.677000000
H    -2.722000000     3.982000000    -3.631000000
O     0.962000000    -1.929000000    -6.288000000
H     1.085000000    -0.980000000    -6.286000000
H     1.384000000    -2.223000000    -7.095000000
O    -0.482000000    -6.752000000    -4.717000000
H    -1.351000000    -7.129000000    -4.577000000
H    -0.402000000    -6.077000000    -4.044000000
O     3.873000000     3.568000000    -2.201000000
H     4.400000000     3.403000000    -1.419000000
H     3.057000000     3.938000000    -1.865000000
O     4.180000000     0.546000000     4.387000000
H     3.655000000     0.703000000     3.602000000
H     3.609000000     0.802000000     5.111000000
O    -0.086000000    -4.828000000    -2.495000000
H     0.320000000    -4.363000000    -3.227000000
H    -0.682000000    -4.188000000    -2.106000000
O    -0.668000000    -7.206000000    -1.330000000
H     0.276000000    -7.356000000    -1.391000000
H    -0.787000000    -6.307000000    -1.639000000
