158
-3010.98391
C     1.359000000    -0.488000000     0.453000000
H     2.256000000    -1.033000000     0.734000000
C     0.353000000    -1.278000000    -0.188000000
H     0.506000000    -2.348000000    -0.300000000
C    -0.862000000    -0.654000000    -0.554000000
H    -1.733000000    -1.173000000    -0.982000000
C    -1.103000000     0.704000000    -0.229000000
H    -2.105000000     1.093000000    -0.393000000
C    -0.060000000     1.392000000     0.306000000
H    -0.291000000     2.428000000     0.541000000
C     1.135000000     0.835000000     0.728000000
C     2.181000000     1.620000000     1.391000000
O     3.204000000     1.069000000     1.709000000
O     2.058000000     2.851000000     1.548000000
O     3.063000000     2.972000000     6.849000000
H     3.898000000     3.399000000     6.657000000
H     2.695000000     2.768000000     5.989000000
O     1.886000000    -3.598000000    -4.514000000
H     1.742000000    -3.748000000    -3.579000000
H     1.324000000    -2.853000000    -4.726000000
O     2.162000000     4.048000000    -0.779000000
H     3.000000000     4.507000000    -0.722000000
H     2.075000000     3.603000000     0.064000000
O    -3.947000000    -0.876000000    -3.096000000
H    -4.801000000    -0.446000000    -3.127000000
H    -3.852000000    -1.154000000    -2.185000000
O    -4.267000000    -1.634000000     0.191000000
H    -4.061000000    -2.444000000    -0.276000000
H    -5.218000000    -1.653000000     0.294000000
O    -1.492000000     6.834000000     0.900000000
H    -2.203000000     7.475000000     0.905000000
H    -1.833000000     6.095000000     1.404000000
O    -4.809000000    -3.808000000    -2.420000000
H    -4.608000000    -4.292000000    -3.221000000
H    -5.660000000    -3.404000000    -2.592000000
O    -0.578000000     4.543000000    -0.598000000
H     0.374000000     4.571000000    -0.695000000
H    -0.822000000     5.440000000    -0.372000000
O    -7.210000000     1.801000000    -0.174000000
H    -7.817000000     1.478000000    -0.841000000
H    -6.813000000     1.010000000     0.191000000
O     6.941000000     3.623000000     0.993000000
H     7.803000000     3.240000000     1.158000000
H     7.121000000     4.394000000     0.455000000
O    -6.876000000    -0.872000000    -0.126000000
H    -7.532000000    -0.559000000    -0.749000000
H    -7.352000000    -1.485000000     0.435000000
O    -1.714000000    -4.583000000     1.576000000
H    -1.318000000    -5.447000000     1.692000000
H    -1.170000000    -3.997000000     2.102000000
O     6.376000000    -2.045000000    -1.981000000
H     5.922000000    -1.393000000    -1.447000000
H     5.673000000    -2.566000000    -2.370000000
O     6.126000000     1.187000000    -2.234000000
H     6.750000000     1.865000000    -1.973000000
H     5.688000000     0.938000000    -1.419000000
O     4.935000000     7.039000000     0.511000000
H     4.585000000     6.511000000     1.229000000
H     4.968000000     7.929000000     0.861000000
O    -2.019000000    -3.117000000    -3.438000000
H    -2.721000000    -2.466000000    -3.452000000
H    -2.080000000    -3.516000000    -2.570000000
O    -0.897000000     2.977000000     5.286000000
H    -0.856000000     2.110000000     5.690000000
H    -1.647000000     2.931000000     4.694000000
O     2.749000000    -0.792000000    -2.145000000
H     2.611000000    -1.732000000    -2.030000000
H     2.101000000    -0.533000000    -2.800000000
O     0.902000000     5.222000000     1.953000000
H     1.256000000     4.333000000     1.925000000
H     1.029000000     5.558000000     1.066000000
O    -6.017000000     4.020000000    -1.479000000
H    -5.231000000     3.892000000    -0.948000000
H    -6.563000000     3.258000000    -1.286000000
O    -2.294000000    -4.300000000    -1.098000000
H    -2.048000000    -4.367000000    -0.176000000
H    -2.907000000    -5.022000000    -1.236000000
O     1.688000000     6.963000000    -0.670000000
H     2.271000000     6.735000000    -1.394000000
H     2.092000000     7.733000000    -0.270000000
O     4.845000000    -4.230000000     0.778000000
H     4.035000000    -4.363000000     0.286000000
H     5.540000000    -4.350000000     0.130000000
O     4.942000000     2.799000000     2.745000000
H     5.579000000     3.041000000     2.073000000
H     4.282000000     2.289000000     2.276000000
O    -2.520000000    -0.297000000     2.448000000
H    -3.213000000    -0.585000000     1.855000000
H    -1.775000000    -0.113000000     1.876000000
O     0.708000000    -0.699000000    -3.585000000
H     0.590000000    -0.196000000    -4.391000000
H    -0.117000000    -0.591000000    -3.112000000
O    -1.998000000    -1.451000000     4.685000000
H    -2.173000000    -1.212000000     3.775000000
H    -1.705000000    -0.636000000     5.094000000
O    -4.327000000    -4.667000000     2.734000000
H    -5.067000000    -4.772000000     2.136000000
H    -3.564000000    -4.592000000     2.161000000
O    -3.700000000     3.866000000    -0.013000000
H    -2.838000000     3.539000000    -0.272000000
H    -3.571000000     4.206000000     0.873000000
O     3.928000000     5.679000000     2.704000000
H     2.987000000     5.705000000     2.529000000
H     4.174000000     4.766000000     2.559000000
O     4.575000000    -0.113000000    -0.345000000
H     4.179000000     0.074000000     0.505000000
H     3.840000000    -0.373000000    -0.900000000
O     2.391000000    -5.740000000     0.360000000
H     3.073000000    -6.157000000    -0.166000000
H     1.630000000    -5.703000000    -0.219000000
O     2.297000000    -2.347000000     4.951000000
H     2.614000000    -1.444000000     4.957000000
H     3.069000000    -2.870000000     4.735000000
O     0.219000000    -0.106000000    -6.299000000
H    -0.019000000     0.801000000    -6.110000000
H    -0.600000000    -0.516000000    -6.578000000
O     6.117000000     0.019000000     4.197000000
H     6.006000000    -0.856000000     3.825000000
H     5.337000000     0.499000000     3.918000000
O    -2.329000000     0.743000000    -4.446000000
H    -2.676000000     0.188000000    -3.748000000
H    -3.083000000     0.918000000    -5.010000000
O     0.907000000    -4.499000000    -1.953000000
H     0.382000000    -5.296000000    -1.888000000
H     0.485000000    -3.884000000    -1.353000000
O     3.312000000     0.220000000     4.185000000
H     2.907000000     1.054000000     4.422000000
H     3.407000000     0.263000000     3.233000000
O    -2.946000000     2.304000000     3.748000000
H    -3.635000000     2.194000000     4.403000000
H    -2.947000000     1.481000000     3.259000000
O     4.036000000    -3.639000000    -2.457000000
H     4.483000000    -3.963000000    -3.239000000
H     3.281000000    -4.217000000    -2.356000000
O     5.883000000     2.731000000     5.518000000
H     6.054000000     3.640000000     5.272000000
H     5.620000000     2.307000000     4.701000000
O    -3.552000000    -6.650000000    -0.451000000
H    -4.386000000    -6.493000000    -0.893000000
H    -3.793000000    -7.086000000     0.367000000
O     0.170000000     2.232000000    -4.954000000
H    -0.062000000     3.127000000    -4.706000000
H    -0.585000000     1.706000000    -4.690000000
O    -1.108000000    -5.747000000    -4.169000000
H    -1.107000000    -4.791000000    -4.121000000
H    -0.973000000    -5.940000000    -5.097000000
O    -2.360000000     4.801000000     2.402000000
H    -2.140000000     3.870000000     2.411000000
H    -2.571000000     5.005000000     3.313000000
O     2.577000000     2.827000000    -3.149000000
H     1.681000000     2.637000000    -3.424000000
H     2.490000000     3.143000000    -2.250000000
O     1.787000000     2.741000000     4.485000000
H     0.957000000     3.216000000     4.509000000
H     2.247000000     3.100000000     3.726000000
O    -0.085000000    -3.180000000     3.971000000
H    -0.798000000    -2.604000000     4.248000000
H     0.684000000    -2.847000000     4.434000000
