158
-3039.49247
C     0.138000000     1.015000000     1.065000000
H     0.355000000     1.641000000     1.927000000
C     0.932000000    -0.180000000     0.919000000
H     1.603000000    -0.479000000     1.720000000
C     0.726000000    -0.992000000    -0.154000000
H     1.325000000    -1.895000000    -0.263000000
C    -0.153000000    -0.591000000    -1.090000000
H    -0.251000000    -1.199000000    -1.986000000
C    -1.078000000     0.413000000    -0.850000000
H    -1.898000000     0.535000000    -1.552000000
C    -0.939000000     1.294000000     0.225000000
C    -1.886000000     2.429000000     0.533000000
O    -1.457000000     3.382000000     1.155000000
O    -2.924000000     2.549000000    -0.111000000
O     0.817000000     3.590000000     6.022000000
H     1.183000000     3.939000000     5.209000000
H    -0.052000000     3.985000000     6.082000000
O     4.084000000    -2.088000000     0.788000000
H     4.121000000    -2.186000000     1.740000000
H     3.346000000    -2.635000000     0.520000000
O     4.313000000    -5.756000000     3.110000000
H     4.242000000    -6.143000000     2.238000000
H     4.442000000    -6.504000000     3.694000000
O     2.626000000     2.159000000    -0.171000000
H     1.900000000     1.568000000     0.031000000
H     2.257000000     2.786000000    -0.793000000
O    -1.931000000    -2.077000000     0.957000000
H    -2.403000000    -2.617000000     0.323000000
H    -1.267000000    -1.623000000     0.437000000
O     6.800000000    -3.311000000    -1.771000000
H     6.203000000    -3.762000000    -2.368000000
H     7.310000000    -2.730000000    -2.336000000
O     1.298000000     4.370000000    -1.713000000
H     1.754000000     4.982000000    -1.135000000
H     1.863000000     4.301000000    -2.482000000
O    -6.214000000     0.121000000    -3.383000000
H    -5.550000000     0.411000000    -2.757000000
H    -6.414000000    -0.777000000    -3.121000000
O    -4.466000000    -0.187000000     0.332000000
H    -4.115000000     0.652000000     0.032000000
H    -4.066000000    -0.835000000    -0.248000000
O     6.547000000    -3.548000000     1.069000000
H     6.920000000    -3.402000000     0.200000000
H     5.851000000    -2.895000000     1.143000000
O     3.266000000    -0.393000000    -4.220000000
H     4.019000000    -0.004000000    -3.774000000
H     3.308000000    -1.322000000    -3.994000000
O     2.525000000     5.886000000     0.344000000
H     3.427000000     6.198000000     0.418000000
H     2.195000000     5.893000000     1.243000000
O     0.568000000    -5.241000000    -3.472000000
H     0.162000000    -4.978000000    -2.646000000
H     1.102000000    -6.003000000    -3.244000000
O     1.651000000    -7.542000000    -2.235000000
H     1.301000000    -8.323000000    -2.664000000
H     1.120000000    -7.444000000    -1.445000000
O    -1.115000000     5.755000000    -0.316000000
H    -1.581000000     5.164000000     0.276000000
H    -0.521000000     5.186000000    -0.805000000
O     0.066000000    -5.360000000    -0.401000000
H    -0.495000000    -6.127000000    -0.521000000
H     0.559000000    -5.546000000     0.398000000
O     1.433000000    -2.028000000     4.109000000
H     0.601000000    -2.394000000     3.807000000
H     1.197000000    -1.487000000     4.863000000
O    -3.420000000    -3.135000000    -1.153000000
H    -4.061000000    -3.841000000    -1.234000000
H    -2.979000000    -3.113000000    -2.002000000
O    -5.341000000     4.385000000    -3.428000000
H    -4.968000000     4.477000000    -4.304000000
H    -5.836000000     3.566000000    -3.463000000
O    -2.086000000     6.859000000     3.586000000
H    -2.785000000     7.119000000     4.186000000
H    -2.115000000     7.512000000     2.888000000
O    -0.548000000     3.616000000    -3.793000000
H     0.031000000     3.555000000    -3.033000000
H    -0.959000000     4.477000000    -3.712000000
O    -7.780000000     4.022000000     0.362000000
H    -6.943000000     3.567000000     0.267000000
H    -8.175000000     3.636000000     1.144000000
O     2.688000000    -2.946000000    -3.887000000
H     3.463000000    -3.490000000    -3.751000000
H     1.954000000    -3.558000000    -3.833000000
O    -4.548000000     2.782000000     4.971000000
H    -3.658000000     3.040000000     5.211000000
H    -4.677000000     3.151000000     4.097000000
O    -2.980000000    -0.528000000     2.918000000
H    -3.731000000    -0.302000000     2.370000000
H    -2.338000000    -0.890000000     2.308000000
O    -4.849000000     6.255000000    -1.118000000
H    -5.160000000     5.636000000    -0.458000000
H    -4.965000000     5.797000000    -1.950000000
O    -2.184000000    -3.153000000    -3.560000000
H    -2.930000000    -2.844000000    -4.074000000
H    -1.664000000    -3.669000000    -4.177000000
O    -1.687000000     7.929000000     1.030000000
H    -1.011000000     8.398000000     0.541000000
H    -1.800000000     7.106000000     0.554000000
O     3.102000000     0.418000000     3.559000000
H     2.628000000    -0.393000000     3.744000000
H     2.927000000     0.976000000     4.317000000
O     5.770000000     0.550000000    -2.993000000
H     6.185000000     1.413000000    -2.998000000
H     5.628000000     0.358000000    -2.066000000
O    -0.848000000    -0.227000000    -5.670000000
H    -1.618000000    -0.038000000    -5.134000000
H    -0.314000000     0.565000000    -5.611000000
O     1.111000000    -1.833000000    -6.394000000
H     1.650000000    -1.794000000    -5.604000000
H     0.425000000    -1.181000000    -6.248000000
O     1.521000000    -5.713000000     1.889000000
H     2.075000000    -5.258000000     2.523000000
H     2.114000000    -6.319000000     1.444000000
O    -4.351000000     1.643000000    -2.283000000
H    -3.893000000     2.081000000    -1.567000000
H    -3.926000000     1.970000000    -3.076000000
O    -1.975000000     3.491000000     3.786000000
H    -1.934000000     3.342000000     2.842000000
H    -1.768000000     4.420000000     3.891000000
O    -5.037000000     3.756000000     0.668000000
H    -4.700000000     4.274000000     1.399000000
H    -4.255000000     3.395000000     0.250000000
O     4.836000000    -4.657000000    -3.450000000
H     4.545000000    -5.160000000    -2.690000000
H     4.440000000    -5.102000000    -4.199000000
O     1.079000000     1.540000000    -4.967000000
H     1.729000000     1.144000000    -4.386000000
H     0.716000000     2.266000000    -4.460000000
O     4.363000000     2.346000000     1.882000000
H     3.990000000     1.517000000     2.182000000
H     3.920000000     2.522000000     1.053000000
O    -2.388000000     1.719000000    -4.357000000
H    -2.847000000     2.185000000    -5.056000000
H    -1.733000000     2.342000000    -4.043000000
O    -1.100000000     0.916000000     4.111000000
H    -1.364000000     1.836000000     4.096000000
H    -1.837000000     0.449000000     3.719000000
O     0.254000000     5.184000000     2.424000000
H    -0.166000000     4.440000000     1.995000000
H    -0.449000000     5.604000000     2.919000000
O     4.476000000    -2.888000000     3.396000000
H     4.450000000    -3.839000000     3.506000000
H     3.965000000    -2.548000000     4.131000000
O     2.166000000     4.252000000     3.780000000
H     2.604000000     3.728000000     3.110000000
H     1.468000000     4.708000000     3.310000000
O     0.799000000    -0.205000000     5.987000000
H     0.285000000     0.202000000     5.290000000
H     1.497000000     0.425000000     6.169000000
O     5.089000000     0.498000000    -0.421000000
H     4.755000000    -0.331000000    -0.078000000
H     4.372000000     1.119000000    -0.287000000
O    -0.918000000    -3.157000000     3.141000000
H    -1.396000000    -2.711000000     2.441000000
H    -1.086000000    -4.087000000     2.991000000
O     3.676000000    -6.024000000    -1.624000000
H     2.992000000    -6.665000000    -1.817000000
H     4.139000000    -6.388000000    -0.869000000
