158
-3026.70904
C    -0.221000000     0.456000000     1.389000000
H    -0.207000000     0.740000000     2.438000000
C     0.689000000    -0.483000000     0.995000000
H     1.400000000    -0.914000000     1.695000000
C     0.747000000    -0.925000000    -0.335000000
H     1.433000000    -1.688000000    -0.590000000
C    -0.062000000    -0.338000000    -1.289000000
H     0.033000000    -0.603000000    -2.339000000
C    -0.922000000     0.679000000    -0.903000000
H    -1.652000000     1.150000000    -1.557000000
C    -1.026000000     1.124000000     0.396000000
C    -2.102000000     2.192000000     0.791000000
O    -2.199000000     2.492000000     1.958000000
O    -2.862000000     2.656000000     0.020000000
O    -1.777000000     3.284000000     5.844000000
H    -2.261000000     3.782000000     6.503000000
H    -1.868000000     3.797000000     5.041000000
O     4.942000000    -0.729000000     0.791000000
H     4.349000000    -1.332000000     1.239000000
H     5.619000000    -1.293000000     0.418000000
O    -3.642000000     5.798000000    -1.602000000
H    -3.711000000     5.488000000    -2.505000000
H    -2.900000000     5.315000000    -1.238000000
O     3.862000000    -5.023000000     2.244000000
H     3.861000000    -5.144000000     1.294000000
H     4.288000000    -5.809000000     2.585000000
O     2.495000000     1.953000000    -0.855000000
H     2.193000000     1.048000000    -0.928000000
H     1.701000000     2.455000000    -0.667000000
O     0.046000000     5.951000000     5.199000000
H    -0.702000000     6.485000000     5.465000000
H    -0.246000000     5.513000000     4.399000000
O    -1.781000000    -2.638000000    -2.124000000
H    -2.457000000    -2.080000000    -1.739000000
H    -0.966000000    -2.155000000    -1.988000000
O     5.510000000    -2.716000000    -2.566000000
H     4.932000000    -3.476000000    -2.633000000
H     5.047000000    -2.020000000    -3.034000000
O     0.265000000     4.015000000    -4.696000000
H     0.185000000     4.919000000    -4.998000000
H     0.662000000     4.087000000    -3.828000000
O    -7.202000000     2.490000000    -2.475000000
H    -6.317000000     2.173000000    -2.297000000
H    -7.483000000     2.893000000    -1.653000000
O    -4.558000000     0.079000000     0.852000000
H    -4.651000000     1.025000000     0.737000000
H    -3.960000000    -0.189000000     0.155000000
O     5.242000000    -3.528000000     0.181000000
H     5.045000000    -4.464000000     0.215000000
H     5.404000000    -3.351000000    -0.746000000
O    -0.275000000     6.664000000    -1.964000000
H     0.081000000     7.324000000    -1.369000000
H    -0.490000000     5.922000000    -1.398000000
O     3.204000000     0.197000000    -5.367000000
H     3.587000000     0.703000000    -4.650000000
H     3.825000000    -0.516000000    -5.515000000
O     1.043000000     3.807000000     0.693000000
H     1.632000000     4.559000000     0.748000000
H     1.160000000     3.349000000     1.525000000
O     7.415000000    -2.062000000     0.137000000
H     6.793000000    -2.772000000     0.299000000
H     8.228000000    -2.506000000    -0.102000000
O     3.712000000    -6.075000000    -0.390000000
H     3.661000000    -6.122000000    -1.344000000
H     3.877000000    -6.977000000    -0.114000000
O    -1.299000000     4.870000000    -0.006000000
H    -2.009000000     4.285000000     0.258000000
H    -0.500000000     4.391000000     0.212000000
O    -2.819000000    -4.938000000    -0.947000000
H    -2.276000000    -5.689000000    -1.188000000
H    -2.338000000    -4.179000000    -1.277000000
O     0.919000000    -2.047000000     3.703000000
H     0.333000000    -2.308000000     2.993000000
H     0.358000000    -2.012000000     4.478000000
O    -3.813000000    -0.882000000    -1.568000000
H    -3.627000000    -0.318000000    -2.318000000
H    -4.525000000    -1.448000000    -1.866000000
O    -2.609000000     3.246000000    -4.856000000
H    -1.675000000     3.381000000    -4.698000000
H    -2.962000000     4.127000000    -4.976000000
O    -7.779000000     2.229000000     0.744000000
H    -6.885000000     2.407000000     1.036000000
H    -8.086000000     1.533000000     1.325000000
O    -1.986000000    -2.098000000    -5.066000000
H    -2.838000000    -2.527000000    -4.978000000
H    -1.469000000    -2.442000000    -4.338000000
O     1.570000000    -1.683000000    -7.151000000
H     1.824000000    -1.136000000    -6.407000000
H     0.625000000    -1.558000000    -7.229000000
O    -5.028000000     0.120000000     3.490000000
H    -4.907000000    -0.135000000     2.575000000
H    -4.232000000     0.604000000     3.711000000
O    -4.786000000     5.515000000     1.072000000
H    -4.802000000     4.564000000     1.183000000
H    -4.241000000     5.656000000     0.298000000
O     2.018000000     0.443000000     4.105000000
H     1.667000000    -0.304000000     3.621000000
H     1.341000000     0.650000000     4.749000000
O     3.923000000     1.673000000    -3.101000000
H     4.756000000     1.844000000    -2.661000000
H     3.281000000     1.633000000    -2.392000000
O     1.182000000    -5.634000000     0.627000000
H     0.576000000    -5.723000000    -0.110000000
H     2.045000000    -5.800000000     0.248000000
O     0.207000000    -6.011000000     2.911000000
H     0.556000000    -5.698000000     2.077000000
H     0.456000000    -6.935000000     2.943000000
O     3.817000000     0.218000000     6.157000000
H     4.011000000    -0.713000000     6.262000000
H     3.103000000     0.243000000     5.520000000
O    -4.673000000     2.821000000    -1.913000000
H    -4.082000000     2.493000000    -1.236000000
H    -4.104000000     3.005000000    -2.660000000
O    -2.872000000     1.417000000     4.212000000
H    -2.372000000     1.682000000     3.440000000
H    -2.456000000     1.882000000     4.938000000
O    -5.164000000     2.870000000     1.742000000
H    -5.350000000     2.258000000     2.453000000
H    -4.237000000     2.734000000     1.545000000
O     3.746000000    -4.916000000    -3.188000000
H     2.814000000    -5.118000000    -3.269000000
H     4.058000000    -4.862000000    -4.091000000
O     0.107000000     1.182000000    -5.307000000
H     0.888000000     1.126000000    -5.858000000
H    -0.066000000     2.120000000    -5.232000000
O     4.730000000     1.056000000     3.021000000
H     3.869000000     0.725000000     3.275000000
H     4.910000000     0.635000000     2.181000000
O    -3.154000000     0.534000000    -4.118000000
H    -2.447000000     0.076000000    -4.571000000
H    -3.060000000     1.447000000    -4.387000000
O    -0.919000000     4.673000000     2.802000000
H    -1.456000000     3.965000000     2.447000000
H    -0.872000000     5.316000000     2.094000000
O     3.624000000    -2.118000000     2.984000000
H     3.762000000    -2.978000000     2.588000000
H     2.768000000    -2.184000000     3.406000000
O     1.697000000     3.023000000     3.278000000
H     1.788000000     2.143000000     3.644000000
H     2.132000000     3.593000000     3.913000000
O     6.165000000    -1.171000000     4.317000000
H     6.066000000    -0.333000000     4.769000000
H     5.379000000    -1.246000000     3.776000000
O    -0.790000000    -1.166000000     5.942000000
H    -1.703000000    -1.169000000     5.655000000
H    -0.508000000    -0.257000000     5.837000000
O     0.522000000     1.409000000     6.326000000
H     0.941000000     1.458000000     7.185000000
H    -0.215000000     2.017000000     6.384000000
O     7.123000000     0.775000000     0.247000000
H     7.578000000    -0.050000000     0.419000000
H     6.199000000     0.573000000     0.390000000
O    -1.230000000    -3.370000000     2.497000000
H    -1.971000000    -3.276000000     1.899000000
H    -0.753000000    -4.132000000     2.169000000
O     1.165000000    -5.997000000    -3.222000000
H     0.306000000    -5.586000000    -3.125000000
H     1.008000000    -6.746000000    -3.798000000
