158
-3028.75468
C     1.102000000     0.212000000     0.944000000
H     1.925000000     0.356000000     1.638000000
C     0.813000000    -1.030000000     0.387000000
H     1.259000000    -1.979000000     0.673000000
C    -0.242000000    -1.115000000    -0.541000000
H    -0.496000000    -2.069000000    -0.973000000
C    -0.888000000     0.031000000    -0.899000000
H    -1.701000000    -0.012000000    -1.619000000
C    -0.581000000     1.332000000    -0.378000000
H    -1.140000000     2.231000000    -0.625000000
C     0.419000000     1.407000000     0.614000000
C     0.795000000     2.690000000     1.285000000
O     1.703000000     2.782000000     2.113000000
O     0.018000000     3.608000000     1.252000000
O     4.462000000     0.733000000     4.395000000
H     4.319000000     0.060000000     3.730000000
H     4.435000000     1.558000000     3.910000000
O     4.302000000    -1.919000000    -3.594000000
H     4.184000000    -1.215000000    -2.956000000
H     3.484000000    -2.416000000    -3.556000000
O    -3.826000000     5.649000000    -1.108000000
H    -3.241000000     5.138000000    -1.667000000
H    -3.659000000     5.321000000    -0.224000000
O     3.573000000     2.457000000    -0.262000000
H     3.166000000     2.439000000     0.604000000
H     4.305000000     3.067000000    -0.170000000
O    -4.020000000    -1.984000000    -3.438000000
H    -4.741000000    -2.614000000    -3.450000000
H    -4.043000000    -1.577000000    -4.303000000
O    -4.538000000    -1.698000000    -0.622000000
H    -4.022000000    -2.434000000    -0.952000000
H    -4.339000000    -0.979000000    -1.222000000
O    -1.131000000     5.050000000    -2.966000000
H    -0.267000000     4.947000000    -2.565000000
H    -1.306000000     5.990000000    -2.919000000
O     5.479000000     4.430000000    -0.501000000
H     6.391000000     4.547000000    -0.236000000
H     5.002000000     5.111000000    -0.026000000
O    -4.328000000     0.891000000    -1.694000000
H    -4.173000000     1.009000000    -2.631000000
H    -5.281000000     0.879000000    -1.608000000
O    -1.009000000    -4.210000000     2.896000000
H    -1.150000000    -5.152000000     2.991000000
H    -1.875000000    -3.824000000     3.028000000
O     6.118000000     1.380000000     1.164000000
H     6.879000000     1.679000000     1.662000000
H     5.377000000     1.838000000     1.561000000
O    -3.905000000     3.709000000    -4.113000000
H    -3.712000000     3.580000000    -3.184000000
H    -3.081000000     4.021000000    -4.488000000
O     0.537000000     7.700000000     2.555000000
H     0.097000000     8.448000000     2.151000000
H     1.455000000     7.963000000     2.610000000
O    -2.411000000    -6.697000000     0.945000000
H    -1.666000000    -6.677000000     1.545000000
H    -2.462000000    -7.608000000     0.657000000
O    -1.319000000    -2.904000000    -3.364000000
H    -2.095000000    -2.348000000    -3.439000000
H    -1.511000000    -3.484000000    -2.627000000
O    -2.369000000     5.121000000     4.484000000
H    -1.557000000     4.895000000     4.032000000
H    -2.615000000     4.322000000     4.951000000
O     2.705000000    -0.222000000     6.516000000
H     3.197000000     0.189000000     5.805000000
H     3.146000000     0.070000000     7.313000000
O    -0.173000000    -7.090000000    -3.137000000
H    -0.732000000    -7.845000000    -3.320000000
H     0.386000000    -7.376000000    -2.414000000
O     0.707000000     6.092000000     0.012000000
H     0.379000000     5.294000000     0.427000000
H     0.666000000     6.754000000     0.701000000
O    -3.734000000    -5.583000000    -1.095000000
H    -4.556000000    -5.706000000    -0.621000000
H    -3.056000000    -5.836000000    -0.469000000
O     1.634000000    -1.517000000     3.521000000
H     0.709000000    -1.577000000     3.281000000
H     1.688000000    -1.943000000     4.377000000
O    -2.981000000    -6.149000000    -3.623000000
H    -2.076000000    -6.364000000    -3.400000000
H    -3.362000000    -5.836000000    -2.803000000
O    -0.332000000     2.725000000    -4.263000000
H     0.253000000     2.288000000    -3.644000000
H    -0.307000000     3.647000000    -4.005000000
O    -4.084000000     1.702000000     1.287000000
H    -5.025000000     1.671000000     1.111000000
H    -3.691000000     1.201000000     0.573000000
O     1.756000000    -2.890000000    -3.289000000
H     0.850000000    -2.976000000    -3.587000000
H     1.828000000    -1.979000000    -3.004000000
O    -2.742000000     0.932000000     3.494000000
H    -3.137000000     1.369000000     2.739000000
H    -2.696000000     1.612000000     4.167000000
O     1.669000000     4.070000000    -2.033000000
H     2.501000000     3.602000000    -1.958000000
H     1.569000000     4.518000000    -1.193000000
O    -3.629000000    -2.897000000     2.037000000
H    -4.211000000    -2.547000000     1.362000000
H    -4.026000000    -3.732000000     2.285000000
O    -2.632000000     4.188000000     1.057000000
H    -3.110000000     3.435000000     1.405000000
H    -1.745000000     4.089000000     1.403000000
O     3.154000000     5.673000000     3.239000000
H     2.267000000     5.328000000     3.343000000
H     3.060000000     6.617000000     3.366000000
O     4.217000000     2.874000000     2.786000000
H     3.271000000     2.781000000     2.674000000
H     4.378000000     3.813000000     2.688000000
O    -0.229000000    -1.735000000    -6.476000000
H    -0.853000000    -1.975000000    -5.790000000
H    -0.584000000    -2.131000000    -7.272000000
O     5.241000000    -3.946000000     0.444000000
H     4.864000000    -3.917000000     1.323000000
H     5.511000000    -3.045000000     0.269000000
O    -4.235000000     1.141000000    -4.425000000
H    -4.385000000     2.062000000    -4.639000000
H    -3.331000000     0.977000000    -4.692000000
O    -1.725000000     2.567000000     5.203000000
H    -1.673000000     2.667000000     6.154000000
H    -0.832000000     2.350000000     4.936000000
O     2.318000000    -5.152000000    -1.652000000
H     1.469000000    -5.399000000    -1.283000000
H     2.163000000    -4.300000000    -2.060000000
O     0.606000000     1.774000000     4.299000000
H     1.038000000     2.132000000     3.524000000
H     0.397000000     0.870000000     4.061000000
O     4.181000000     4.518000000     6.030000000
H     3.957000000     4.687000000     5.115000000
H     4.439000000     3.596000000     6.046000000
O     1.401000000     1.087000000    -2.601000000
H     0.803000000     0.721000000    -1.950000000
H     2.241000000     1.147000000    -2.148000000
O    -1.921000000     1.101000000    -5.896000000
H    -1.148000000     1.374000000    -5.401000000
H    -2.067000000     1.811000000    -6.521000000
O     4.756000000     0.107000000    -1.514000000
H     5.484000000    -0.264000000    -1.014000000
H     4.461000000     0.852000000    -0.989000000
O     0.345000000     5.153000000     3.572000000
H     0.263000000     6.025000000     3.186000000
H     0.477000000     4.571000000     2.824000000
O     4.112000000    -0.982000000     2.541000000
H     3.277000000    -1.297000000     2.886000000
H     4.025000000    -1.063000000     1.592000000
O     0.962000000    -3.912000000     4.979000000
H     1.165000000    -4.838000000     5.115000000
H     0.332000000    -3.908000000     4.259000000
O    -1.190000000    -1.145000000     3.102000000
H    -1.764000000    -0.389000000     3.227000000
H    -1.537000000    -1.583000000     2.325000000
O     1.362000000     2.926000000     7.015000000
H     0.447000000     2.789000000     7.260000000
H     1.393000000     2.723000000     6.080000000
O     2.577000000    -5.728000000     2.007000000
H     3.150000000    -5.918000000     1.265000000
H     1.697000000    -5.704000000     1.631000000
O     0.360000000    -5.499000000    -5.519000000
H     0.273000000    -6.391000000    -5.182000000
H    -0.200000000    -4.972000000    -4.948000000
