158
-2987.70423
C     0.853000000     1.195000000     0.218000000
H     1.550000000     2.026000000     0.284000000
C     0.738000000     0.482000000    -0.950000000
H     1.185000000     0.924000000    -1.837000000
C    -0.134000000    -0.598000000    -1.091000000
H    -0.303000000    -1.000000000    -2.123000000
C    -0.845000000    -1.009000000     0.017000000
H    -1.581000000    -1.800000000    -0.108000000
C    -0.716000000    -0.292000000     1.210000000
H    -1.379000000    -0.400000000     2.065000000
C     0.124000000     0.805000000     1.339000000
C     0.243000000     1.432000000     2.671000000
O     0.976000000     2.310000000     2.866000000
O    -0.133000000     0.889000000     3.643000000
O     0.092000000     1.063000000    -6.946000000
H    -0.560000000     1.672000000    -7.293000000
H    -0.326000000     0.679000000    -6.175000000
O     5.356000000    -2.341000000    -0.568000000
H     4.406000000    -2.429000000    -0.487000000
H     5.595000000    -2.952000000    -1.265000000
O    -1.108000000    -0.097000000    -4.678000000
H    -2.003000000    -0.403000000    -4.531000000
H    -0.595000000    -0.899000000    -4.780000000
O     2.442000000     1.923000000     5.257000000
H     1.958000000     2.571000000     5.769000000
H     2.071000000     1.990000000     4.376000000
O    -2.956000000    -0.372000000     4.937000000
H    -3.719000000    -0.255000000     4.372000000
H    -2.328000000     0.281000000     4.630000000
O     0.898000000    -1.581000000     4.087000000
H     1.122000000    -1.823000000     4.986000000
H     0.416000000    -0.758000000     4.174000000
O    -1.280000000     3.525000000    -4.989000000
H    -1.545000000     3.782000000    -4.106000000
H    -2.017000000     3.010000000    -5.319000000
O     5.144000000     0.777000000    -3.835000000
H     5.030000000     0.428000000    -2.950000000
H     6.024000000     0.500000000    -4.090000000
O     0.231000000    -6.640000000    -1.421000000
H     0.363000000    -7.218000000    -0.670000000
H     1.106000000    -6.313000000    -1.628000000
O     1.999000000     3.934000000    -2.005000000
H     1.176000000     4.282000000    -1.662000000
H     1.745000000     3.143000000    -2.480000000
O    -1.242000000     2.526000000     5.129000000
H    -1.239000000     3.422000000     4.792000000
H    -0.757000000     2.023000000     4.475000000
O     2.559000000    -0.274000000    -4.304000000
H     2.544000000    -0.888000000    -3.570000000
H     3.326000000     0.275000000    -4.141000000
O    -1.932000000     6.679000000     2.698000000
H    -2.265000000     7.077000000     3.503000000
H    -1.244000000     6.082000000     2.994000000
O    -0.254000000     5.663000000    -1.423000000
H    -0.212000000     6.513000000    -0.985000000
H    -0.170000000     5.869000000    -2.354000000
O    -0.664000000    -3.475000000     2.317000000
H    -1.094000000    -3.789000000     3.112000000
H    -0.169000000    -2.706000000     2.600000000
O    -3.507000000    -5.257000000    -2.781000000
H    -4.225000000    -4.650000000    -2.961000000
H    -3.188000000    -5.001000000    -1.916000000
O     4.435000000    -4.140000000    -3.676000000
H     5.171000000    -4.548000000    -4.132000000
H     4.340000000    -3.284000000    -4.093000000
O     4.413000000     0.775000000     1.408000000
H     4.886000000     1.219000000     2.112000000
H     3.814000000     0.180000000     1.861000000
O    -4.465000000    -0.483000000     2.730000000
H    -5.203000000    -1.093000000     2.715000000
H    -3.767000000    -0.940000000     2.261000000
O    -2.306000000    -4.659000000    -6.745000000
H    -3.234000000    -4.760000000    -6.533000000
H    -1.900000000    -4.389000000    -5.921000000
O    -3.805000000     2.375000000     3.462000000
H    -3.246000000     2.160000000     2.715000000
H    -3.955000000     1.536000000     3.898000000
O    -4.953000000    -4.731000000     1.115000000
H    -4.359000000    -4.507000000     0.399000000
H    -4.920000000    -5.686000000     1.164000000
O    -3.204000000     2.325000000     7.191000000
H    -2.415000000     2.301000000     6.651000000
H    -3.855000000     1.836000000     6.687000000
O    -3.594000000     1.939000000     0.103000000
H    -3.147000000     1.720000000    -0.714000000
H    -3.071000000     2.645000000     0.481000000
O     0.899000000     5.234000000     6.710000000
H     1.396000000     5.523000000     5.944000000
H     0.217000000     5.897000000     6.816000000
O    -5.911000000    -0.488000000    -0.517000000
H    -5.014000000    -0.156000000    -0.547000000
H    -5.881000000    -1.203000000     0.118000000
O    -3.229000000    -1.645000000    -3.543000000
H    -2.817000000    -2.292000000    -2.971000000
H    -3.855000000    -2.148000000    -4.064000000
O     1.471000000    -3.885000000    -6.467000000
H     2.094000000    -3.194000000    -6.690000000
H     2.018000000    -4.636000000    -6.235000000
O     3.188000000    -5.659000000    -1.966000000
H     3.687000000    -5.813000000    -1.165000000
H     3.753000000    -5.097000000    -2.497000000
O     2.324000000    -2.244000000    -0.445000000
H     1.590000000    -1.669000000    -0.662000000
H     2.340000000    -2.263000000     0.512000000
O    -1.737000000    -6.306000000     1.706000000
H    -1.368000000    -5.433000000     1.843000000
H    -0.994000000    -6.838000000     1.421000000
O    -1.869000000     4.117000000     0.609000000
H    -0.954000000     4.102000000     0.331000000
H    -1.934000000     4.882000000     1.180000000
O    -0.187000000     4.725000000     2.902000000
H     0.369000000     5.294000000     3.434000000
H     0.240000000     3.868000000     2.943000000
O    -0.318000000    -2.681000000    -4.477000000
H     0.017000000    -3.122000000    -3.696000000
H     0.162000000    -3.081000000    -5.202000000
O    -2.148000000    -4.401000000    -0.698000000
H    -1.549000000    -3.772000000    -1.101000000
H    -1.771000000    -4.572000000     0.164000000
O     2.070000000    -0.806000000    -7.070000000
H     1.542000000    -0.130000000    -7.493000000
H     2.000000000    -0.615000000    -6.135000000
O     3.888000000     4.536000000    -0.215000000
H     3.086000000     4.425000000    -0.727000000
H     3.685000000     4.149000000     0.636000000
O     1.015000000     2.283000000    -3.987000000
H     0.436000000     2.827000000    -4.522000000
H     1.274000000     1.567000000    -4.567000000
O     3.968000000     4.608000000     4.350000000
H     3.475000000     4.405000000     3.555000000
H     4.877000000     4.675000000     4.058000000
O    -2.575000000     0.763000000    -2.230000000
H    -1.622000000     0.855000000    -2.215000000
H    -2.726000000    -0.108000000    -2.596000000
O     6.085000000     1.799000000     3.106000000
H     6.781000000     1.227000000     3.430000000
H     5.614000000     2.073000000     3.893000000
O     0.055000000     2.093000000     7.687000000
H     0.316000000     1.197000000     7.902000000
H     0.106000000     2.134000000     6.732000000
O     3.221000000     3.260000000     2.095000000
H     2.414000000     2.879000000     2.441000000
H     3.680000000     2.524000000     1.691000000
O     1.209000000     6.631000000     4.405000000
H     2.016000000     6.736000000     3.901000000
H     1.103000000     7.465000000     4.863000000
O     4.837000000     0.331000000    -1.186000000
H     4.893000000    -0.625000000    -1.165000000
H     4.628000000     0.578000000    -0.285000000
O     3.350000000    -1.403000000     2.881000000
H     2.416000000    -1.432000000     3.086000000
H     3.781000000    -1.373000000     3.736000000
O     0.545000000    -3.863000000    -2.140000000
H     0.271000000    -4.759000000    -1.943000000
H     1.252000000    -3.687000000    -1.519000000
O    -4.441000000    -2.928000000    -6.244000000
H    -5.125000000    -2.363000000    -6.603000000
H    -3.626000000    -2.456000000    -6.414000000
