158
-3047.11818
C     0.508000000     0.709000000     1.225000000
H     0.942000000     1.124000000     2.131000000
C     1.297000000     0.082000000     0.211000000
H     2.369000000     0.262000000     0.212000000
C     0.686000000    -0.519000000    -0.860000000
H     1.366000000    -0.848000000    -1.653000000
C    -0.679000000    -0.377000000    -1.063000000
H    -1.196000000    -0.891000000    -1.870000000
C    -1.455000000     0.144000000    -0.070000000
H    -2.536000000     0.035000000    -0.103000000
C    -0.860000000     0.695000000     1.125000000
C    -1.767000000     1.266000000     2.214000000
O    -1.198000000     1.844000000     3.150000000
O    -2.939000000     1.067000000     2.256000000
O     3.288000000    -3.560000000    -0.397000000
H     2.433000000    -3.409000000     0.004000000
H     3.375000000    -4.512000000    -0.426000000
O    -1.360000000     3.252000000     6.872000000
H    -0.588000000     3.818000000     6.895000000
H    -1.820000000     3.507000000     6.073000000
O     0.929000000     3.418000000    -3.288000000
H     1.401000000     3.886000000    -3.977000000
H     0.897000000     2.511000000    -3.593000000
O    -4.072000000    -1.136000000     2.666000000
H    -4.597000000    -1.380000000     1.904000000
H    -3.698000000    -0.285000000     2.437000000
O    -2.346000000    -3.503000000     3.675000000
H    -2.838000000    -3.846000000     4.422000000
H    -2.976000000    -2.958000000     3.203000000
O     1.655000000    -2.390000000    -4.420000000
H     1.477000000    -2.399000000    -3.479000000
H     2.477000000    -2.871000000    -4.512000000
O    -0.676000000     2.829000000    -1.114000000
H    -0.452000000     1.934000000    -0.858000000
H    -0.118000000     3.009000000    -1.870000000
O    -5.712000000     1.664000000     2.086000000
H    -5.999000000     0.898000000     2.583000000
H    -4.758000000     1.655000000     2.160000000
O    -0.314000000     0.919000000    -4.391000000
H     0.192000000     0.111000000    -4.304000000
H    -1.048000000     0.681000000    -4.957000000
O    -0.913000000    -0.635000000    -6.494000000
H    -0.657000000    -1.463000000    -6.901000000
H    -0.360000000     0.021000000    -6.918000000
O     6.263000000    -0.039000000    -1.593000000
H     6.473000000     0.641000000    -2.233000000
H     5.617000000    -0.591000000    -2.033000000
O     4.070000000    -1.382000000    -1.920000000
H     4.144000000    -2.055000000    -2.597000000
H     3.810000000    -1.861000000    -1.133000000
O    -3.349000000     2.301000000    -1.315000000
H    -3.468000000     2.557000000    -0.401000000
H    -2.434000000     2.506000000    -1.505000000
O     3.888000000    -5.794000000    -2.710000000
H     4.060000000    -6.683000000    -3.022000000
H     3.216000000    -5.458000000    -3.302000000
O     2.582000000    -2.560000000     3.292000000
H     1.641000000    -2.472000000     3.144000000
H     2.684000000    -3.433000000     3.672000000
O    -5.519000000    -2.419000000     0.055000000
H    -6.241000000    -2.907000000    -0.341000000
H    -5.038000000    -2.057000000    -0.689000000
O     4.408000000     4.051000000     3.333000000
H     4.388000000     3.751000000     2.424000000
H     3.844000000     3.436000000     3.801000000
O    -4.690000000    -1.023000000     5.296000000
H    -4.600000000    -1.151000000     4.351000000
H    -5.031000000    -1.857000000     5.619000000
O     4.720000000    -2.961000000    -4.141000000
H     5.113000000    -3.834000000    -4.117000000
H     5.161000000    -2.520000000    -4.867000000
O     3.366000000     0.973000000    -3.024000000
H     3.476000000     0.075000000    -2.711000000
H     2.971000000     1.437000000    -2.285000000
O     2.950000000    -0.943000000    -6.331000000
H     2.364000000    -1.279000000    -5.654000000
H     2.371000000    -0.504000000    -6.954000000
O    -1.253000000     5.154000000     0.803000000
H    -1.418000000     6.076000000     0.604000000
H    -0.798000000     4.820000000     0.030000000
O    -5.293000000     1.766000000     5.505000000
H    -6.209000000     1.772000000     5.226000000
H    -5.073000000     0.839000000     5.588000000
O    -1.598000000     6.437000000     4.956000000
H    -2.496000000     6.620000000     5.233000000
H    -1.639000000     5.559000000     4.577000000
O     0.978000000     1.484000000     4.918000000
H     0.720000000     1.035000000     5.723000000
H     0.206000000     1.429000000     4.355000000
O     5.109000000     0.856000000     0.884000000
H     5.135000000    -0.033000000     1.237000000
H     5.413000000     0.765000000    -0.019000000
O    -2.947000000    -2.444000000    -5.863000000
H    -2.755000000    -1.561000000    -6.179000000
H    -2.475000000    -2.509000000    -5.033000000
O    -4.141000000    -3.243000000    -2.774000000
H    -4.228000000    -4.173000000    -2.564000000
H    -3.230000000    -3.142000000    -3.049000000
O     3.055000000     2.039000000    -5.760000000
H     3.748000000     2.683000000    -5.908000000
H     3.322000000     1.578000000    -4.965000000
O    -0.136000000    -4.349000000    -5.953000000
H     0.614000000    -3.808000000    -5.704000000
H     0.110000000    -4.725000000    -6.798000000
O     1.502000000    -6.103000000     0.046000000
H     2.453000000    -6.215000000     0.076000000
H     1.267000000    -5.818000000     0.929000000
O     0.767000000    -6.394000000    -2.318000000
H     0.922000000    -6.150000000    -1.406000000
H     0.293000000    -7.224000000    -2.268000000
O     0.812000000    -2.918000000     0.543000000
H     0.978000000    -1.975000000     0.532000000
H     0.325000000    -3.066000000     1.353000000
O    -6.077000000     1.641000000    -0.721000000
H    -5.957000000     1.676000000     0.228000000
H    -5.192000000     1.716000000    -1.078000000
O    -3.384000000     3.428000000     4.542000000
H    -4.258000000     3.155000000     4.822000000
H    -3.010000000     2.649000000     4.130000000
O    -3.853000000     3.706000000     0.946000000
H    -2.950000000     4.020000000     0.901000000
H    -4.089000000     3.788000000     1.870000000
O    -1.612000000    -3.088000000    -3.681000000
H    -0.780000000    -3.190000000    -3.219000000
H    -1.550000000    -3.691000000    -4.422000000
O     3.518000000     3.141000000     1.032000000
H     3.917000000     2.280000000     1.156000000
H     2.576000000     2.969000000     1.015000000
O     5.422000000     3.841000000    -1.006000000
H     6.052000000     4.100000000    -0.334000000
H     4.722000000     3.402000000    -0.521000000
O     1.149000000     4.367000000     5.696000000
H     0.870000000     4.624000000     4.817000000
H     1.322000000     3.428000000     5.628000000
O    -4.741000000     0.746000000    -3.655000000
H    -4.357000000     1.017000000    -4.489000000
H    -3.994000000     0.673000000    -3.061000000
O     3.710000000     1.821000000     4.872000000
H     2.768000000     1.661000000     4.925000000
H     4.084000000     0.974000000     4.627000000
O    -2.008000000    -0.151000000     5.081000000
H    -1.915000000     0.565000000     4.452000000
H    -2.791000000    -0.621000000     4.796000000
O    -0.007000000     4.326000000     3.202000000
H    -0.301000000     3.421000000     3.309000000
H    -0.381000000     4.602000000     2.366000000
O    -2.794000000     1.081000000     7.543000000
H    -2.659000000     0.620000000     6.715000000
H    -2.367000000     1.929000000     7.417000000
O     4.526000000    -1.595000000     1.635000000
H     4.669000000    -2.344000000     1.056000000
H     3.877000000    -1.902000000     2.268000000
O    -0.195000000    -1.983000000     3.400000000
H    -0.868000000    -2.579000000     3.728000000
H    -0.318000000    -1.181000000     3.909000000
O     0.691000000    -3.477000000    -2.129000000
H     0.679000000    -4.421000000    -2.290000000
H     0.580000000    -3.394000000    -1.182000000
