158
-2996.21869
C    -0.949000000    -1.025000000     0.567000000
H    -1.496000000    -1.901000000     0.906000000
C    -0.295000000    -1.092000000    -0.691000000
H    -0.344000000    -1.999000000    -1.287000000
C     0.472000000    -0.001000000    -1.122000000
H     1.030000000    -0.015000000    -2.060000000
C     0.619000000     1.071000000    -0.304000000
H     1.184000000     1.931000000    -0.655000000
C     0.103000000     1.164000000     0.969000000
H     0.378000000     2.104000000     1.440000000
C    -0.693000000     0.135000000     1.419000000
C    -1.247000000     0.099000000     2.829000000
O    -0.955000000     1.046000000     3.557000000
O    -1.847000000    -0.831000000     3.171000000
O     3.180000000    -1.391000000     3.458000000
H     2.931000000    -0.587000000     3.915000000
H     2.562000000    -1.453000000     2.730000000
O     1.716000000     0.369000000     4.794000000
H     1.364000000    -0.001000000     5.604000000
H     0.949000000     0.489000000     4.234000000
O    -3.402000000     3.363000000     6.120000000
H    -2.454000000     3.353000000     5.987000000
H    -3.664000000     4.259000000     5.910000000
O     5.155000000    -0.066000000    -3.444000000
H     5.365000000    -0.886000000    -3.890000000
H     4.213000000    -0.117000000    -3.279000000
O    -2.070000000    -0.511000000     7.664000000
H    -2.798000000    -0.748000000     8.239000000
H    -2.490000000    -0.187000000     6.867000000
O     0.046000000     2.448000000     8.022000000
H     0.368000000     1.547000000     8.035000000
H    -0.471000000     2.506000000     7.218000000
O    -0.910000000     4.571000000    -4.622000000
H    -1.366000000     4.787000000    -3.808000000
H    -1.558000000     4.731000000    -5.309000000
O     1.084000000    -0.506000000    -7.276000000
H     1.548000000     0.035000000    -7.915000000
H     0.214000000    -0.631000000    -7.654000000
O    -2.752000000    -0.642000000    -2.685000000
H    -2.451000000    -0.298000000    -1.844000000
H    -2.933000000     0.137000000    -3.211000000
O     1.520000000    -5.614000000    -3.152000000
H     0.771000000    -5.215000000    -3.595000000
H     2.030000000    -6.013000000    -3.857000000
O     4.417000000     0.640000000    -6.472000000
H     5.277000000     0.929000000    -6.167000000
H     3.934000000     0.440000000    -5.671000000
O     1.872000000    -1.844000000     1.226000000
H     2.060000000    -2.510000000     0.565000000
H     1.308000000    -1.213000000     0.778000000
O     0.409000000     4.793000000    -1.700000000
H     0.992000000     4.680000000    -0.949000000
H     0.816000000     4.280000000    -2.398000000
O     0.467000000    -0.149000000     7.047000000
H     0.968000000    -0.424000000     7.815000000
H    -0.418000000    -0.476000000     7.210000000
O    -0.944000000    -4.577000000    -4.226000000
H    -1.504000000    -4.062000000    -3.645000000
H    -1.533000000    -4.884000000    -4.916000000
O     2.270000000    -3.331000000     5.566000000
H     1.968000000    -4.205000000     5.813000000
H     1.621000000    -3.024000000     4.932000000
O     2.372000000     4.308000000     0.448000000
H     2.904000000     3.583000000     0.776000000
H     2.318000000     4.918000000     1.184000000
O     1.846000000     5.806000000     2.886000000
H     1.675000000     5.805000000     3.827000000
H     1.322000000     6.532000000     2.547000000
O    -2.348000000    -5.112000000    -0.697000000
H    -2.759000000    -4.722000000    -1.468000000
H    -1.537000000    -5.499000000    -1.026000000
O    -0.717000000     3.026000000     5.200000000
H    -0.207000000     3.610000000     4.638000000
H    -0.832000000     2.232000000     4.677000000
O     4.664000000    -0.926000000     0.804000000
H     5.353000000    -1.338000000     0.282000000
H     3.921000000    -1.525000000     0.735000000
O    -4.234000000    -4.851000000     3.982000000
H    -4.901000000    -4.217000000     4.247000000
H    -4.146000000    -4.724000000     3.037000000
O     0.222000000    -5.255000000     3.820000000
H    -0.256000000    -5.456000000     3.015000000
H     0.364000000    -4.309000000     3.785000000
O    -3.414000000     0.041000000     5.249000000
H    -2.876000000    -0.454000000     4.630000000
H    -3.724000000     0.795000000     4.748000000
O    -1.403000000    -6.265000000     1.668000000
H    -2.359000000    -6.317000000     1.667000000
H    -1.169000000    -6.152000000     0.747000000
O    -2.744000000     2.447000000     1.628000000
H    -2.794000000     2.485000000     0.672000000
H    -1.879000000     2.080000000     1.808000000
O     2.170000000    -0.079000000    -4.750000000
H     2.235000000    -1.006000000    -4.518000000
H     1.654000000    -0.070000000    -5.556000000
O     0.292000000    -2.617000000     3.747000000
H     0.703000000    -2.378000000     2.916000000
H    -0.465000000    -2.035000000     3.815000000
O     4.754000000     2.895000000    -1.254000000
H     4.431000000     3.785000000    -1.394000000
H     4.815000000     2.521000000    -2.133000000
O    -4.294000000    -1.604000000     2.468000000
H    -3.442000000    -1.641000000     2.903000000
H    -4.318000000    -0.738000000     2.061000000
O     3.084000000     2.513000000     6.500000000
H     3.542000000     3.075000000     5.875000000
H     2.715000000     1.810000000     5.965000000
O    -5.127000000     0.222000000    -1.161000000
H    -4.691000000     0.928000000    -0.683000000
H    -5.473000000     0.645000000    -1.947000000
O     1.175000000    -2.631000000    -4.254000000
H     0.875000000    -3.393000000    -4.749000000
H     0.468000000    -2.456000000    -3.633000000
O    -2.821000000    -3.265000000    -2.688000000
H    -3.625000000    -3.486000000    -3.158000000
H    -2.863000000    -2.315000000    -2.575000000
O     2.738000000     4.552000000    -3.954000000
H     2.335000000     5.215000000    -4.516000000
H     2.173000000     3.785000000    -4.046000000
O    -3.946000000     4.965000000     2.675000000
H    -3.301000000     5.488000000     3.150000000
H    -3.510000000     4.126000000     2.524000000
O     1.070000000     2.303000000    -3.745000000
H     1.277000000     1.418000000    -4.047000000
H     0.133000000     2.402000000    -3.917000000
O     3.673000000    -4.121000000    -4.928000000
H     4.352000000    -3.507000000    -4.645000000
H     2.852000000    -3.650000000    -4.791000000
O    -5.558000000    -4.819000000     1.263000000
H    -6.283000000    -4.719000000     1.879000000
H    -5.555000000    -4.004000000     0.761000000
O    -2.451000000     2.509000000    -1.021000000
H    -1.573000000     2.781000000    -1.287000000
H    -2.988000000     3.294000000    -1.127000000
O     2.487000000    -3.928000000    -0.715000000
H     2.136000000    -4.296000000    -1.526000000
H     3.396000000    -3.712000000    -0.924000000
O    -5.359000000     0.992000000     2.079000000
H    -4.605000000     1.537000000     1.855000000
H    -5.553000000     1.214000000     2.990000000
O    -2.937000000     1.729000000    -4.625000000
H    -3.634000000     2.337000000    -4.377000000
H    -2.954000000     1.722000000    -5.582000000
O    -6.743000000    -0.915000000     3.800000000
H    -6.361000000    -0.627000000     2.971000000
H    -6.766000000    -0.126000000     4.341000000
O    -5.643000000    -2.784000000     5.173000000
H    -6.001000000    -2.161000000     4.541000000
H    -4.781000000    -2.431000000     5.395000000
O     3.443000000     2.191000000     3.601000000
H     3.435000000     2.054000000     2.653000000
H     2.816000000     1.553000000     3.940000000
O    -5.628000000    -2.312000000    -0.158000000
H    -5.324000000    -1.659000000    -0.790000000
H    -5.212000000    -2.059000000     0.666000000
O     3.910000000     1.620000000     1.083000000
H     4.205000000     0.730000000     0.889000000
H     3.983000000     2.083000000     0.248000000
