158
-3024.28007
C     0.799000000     1.174000000    -0.090000000
H     1.468000000     1.994000000    -0.339000000
C     1.208000000    -0.139000000    -0.295000000
H     2.192000000    -0.310000000    -0.723000000
C     0.363000000    -1.170000000    -0.165000000
H     0.697000000    -2.154000000    -0.476000000
C    -0.984000000    -0.923000000     0.180000000
H    -1.726000000    -1.716000000     0.122000000
C    -1.386000000     0.421000000     0.530000000
H    -2.422000000     0.683000000     0.728000000
C    -0.510000000     1.452000000     0.333000000
C    -0.860000000     2.925000000     0.578000000
O    -0.259000000     3.772000000    -0.043000000
O    -1.708000000     3.276000000     1.433000000
O     0.842000000     4.675000000     2.705000000
H     1.521000000     5.350000000     2.718000000
H     0.696000000     4.499000000     1.776000000
O     0.640000000    -1.032000000     3.096000000
H     1.426000000    -1.185000000     2.571000000
H     0.064000000    -0.527000000     2.523000000
O    -0.290000000    -4.445000000     0.056000000
H    -1.071000000    -3.996000000     0.381000000
H    -0.013000000    -3.926000000    -0.699000000
O     4.322000000     1.869000000    -2.609000000
H     4.424000000     1.404000000    -1.779000000
H     5.216000000     1.988000000    -2.929000000
O    -2.061000000     2.911000000     4.239000000
H    -2.461000000     3.667000000     4.668000000
H    -1.679000000     3.266000000     3.436000000
O     3.746000000    -3.390000000    -4.516000000
H     3.920000000    -2.487000000    -4.249000000
H     4.301000000    -3.523000000    -5.284000000
O    -1.112000000     8.315000000    -0.758000000
H    -1.905000000     8.396000000    -1.288000000
H    -1.156000000     7.430000000    -0.396000000
O     2.331000000     6.505000000    -3.212000000
H     3.198000000     6.782000000    -2.914000000
H     2.122000000     5.745000000    -2.669000000
O     3.088000000    -1.996000000     1.537000000
H     3.826000000    -1.769000000     2.103000000
H     3.494000000    -2.318000000     0.732000000
O    -3.258000000     0.817000000    -3.814000000
H    -3.052000000     0.665000000    -4.736000000
H    -2.496000000     1.286000000    -3.473000000
O    -0.328000000    -1.195000000     5.437000000
H    -0.279000000    -0.273000000     5.691000000
H     0.118000000    -1.234000000     4.591000000
O    -5.876000000     0.018000000    -0.742000000
H    -6.576000000    -0.206000000    -1.356000000
H    -5.229000000    -0.679000000    -0.850000000
O    -2.050000000    -3.516000000    -4.757000000
H    -2.883000000    -3.791000000    -5.139000000
H    -1.539000000    -4.323000000    -4.690000000
O    -4.069000000     5.100000000    -1.835000000
H    -4.416000000     4.704000000    -2.634000000
H    -4.357000000     4.516000000    -1.133000000
O    -5.275000000    -3.958000000    -1.846000000
H    -4.644000000    -3.315000000    -2.169000000
H    -5.668000000    -4.328000000    -2.636000000
O    -0.142000000     4.930000000     5.152000000
H     0.645000000     4.748000000     5.665000000
H     0.152000000     4.900000000     4.242000000
O    -5.598000000     1.227000000     2.060000000
H    -5.653000000     0.927000000     1.152000000
H    -6.244000000     0.697000000     2.527000000
O    -0.858000000     1.253000000    -2.648000000
H    -0.821000000     0.918000000    -1.752000000
H    -0.047000000     1.751000000    -2.750000000
O     2.503000000    -5.532000000     0.467000000
H     3.333000000    -5.054000000     0.470000000
H     1.862000000    -4.898000000     0.147000000
O    -0.883000000     5.522000000    -4.662000000
H    -1.570000000     6.065000000    -5.050000000
H    -0.946000000     5.693000000    -3.722000000
O    -4.282000000     3.679000000     2.096000000
H    -3.369000000     3.488000000     1.879000000
H    -4.629000000     2.847000000     2.419000000
O     2.165000000     6.728000000     2.342000000
H     1.901000000     7.075000000     1.489000000
H     2.770000000     7.382000000     2.690000000
O     0.945000000     2.033000000     3.808000000
H     0.357000000     1.938000000     4.557000000
H     0.836000000     2.943000000     3.532000000
O    -3.697000000    -1.635000000    -2.122000000
H    -3.707000000    -0.900000000    -2.735000000
H    -2.768000000    -1.826000000    -1.992000000
O     5.390000000    -4.160000000     1.320000000
H     5.386000000    -3.484000000     1.997000000
H     5.935000000    -4.858000000     1.683000000
O    -3.621000000    -4.400000000     0.293000000
H    -4.249000000    -4.748000000     0.926000000
H    -4.146000000    -4.204000000    -0.483000000
O     1.152000000    -0.546000000    -3.999000000
H     0.709000000     0.284000000    -3.820000000
H     1.842000000    -0.319000000    -4.622000000
O     2.960000000    -3.290000000    -1.446000000
H     2.123000000    -3.236000000    -1.907000000
H     3.466000000    -2.550000000    -1.782000000
O    -0.382000000    -5.806000000    -4.319000000
H    -0.072000000    -5.796000000    -3.414000000
H    -0.562000000    -6.729000000    -4.500000000
O     4.158000000    -1.197000000    -2.507000000
H     3.837000000    -0.775000000    -3.304000000
H     4.537000000    -0.484000000    -1.994000000
O    -2.367000000    -7.083000000     0.748000000
H    -2.087000000    -6.206000000     0.487000000
H    -1.581000000    -7.484000000     1.120000000
O    -1.288000000     5.719000000    -1.974000000
H    -2.238000000     5.607000000    -1.991000000
H    -0.989000000     5.128000000    -1.283000000
O    -2.304000000     6.178000000     1.059000000
H    -1.794000000     5.373000000     0.973000000
H    -2.757000000     6.087000000     1.897000000
O     2.267000000    -8.094000000     1.323000000
H     2.694000000    -8.263000000     2.164000000
H     2.469000000    -7.178000000     1.132000000
O     0.470000000    -3.288000000    -2.642000000
H     0.350000000    -3.810000000    -3.435000000
H     0.680000000    -2.411000000    -2.962000000
O    -2.579000000     0.138000000     3.604000000
H    -3.441000000     0.442000000     3.320000000
H    -2.015000000     0.907000000     3.523000000
O    -2.553000000    -3.056000000     4.274000000
H    -2.137000000    -2.432000000     4.868000000
H    -2.468000000    -2.656000000     3.409000000
O    -2.903000000    -6.849000000    -2.596000000
H    -3.791000000    -7.204000000    -2.628000000
H    -2.884000000    -6.322000000    -1.798000000
O     1.695000000     2.386000000    -3.031000000
H     1.707000000     3.228000000    -2.576000000
H     2.604000000     2.086000000    -3.004000000
O     4.078000000    -5.958000000    -2.347000000
H     3.182000000    -6.033000000    -2.020000000
H     4.222000000    -5.016000000    -2.439000000
O     0.219000000    -7.224000000    -2.067000000
H    -0.224000000    -6.652000000    -1.440000000
H     0.424000000    -8.014000000    -1.567000000
O     3.307000000    -0.089000000     4.030000000
H     3.119000000    -0.743000000     4.704000000
H     2.445000000     0.198000000     3.729000000
O    -6.147000000     2.768000000    -0.710000000
H    -6.042000000     2.039000000    -1.322000000
H    -5.538000000     2.571000000     0.002000000
O     0.294000000     3.155000000    -5.405000000
H     0.802000000     2.691000000    -4.740000000
H    -0.062000000     3.916000000    -4.947000000
O     4.062000000     5.051000000     0.250000000
H     4.791000000     4.437000000     0.342000000
H     4.415000000     5.888000000     0.551000000
O     1.829000000     4.585000000    -1.521000000
H     1.085000000     4.279000000    -1.002000000
H     2.486000000     4.838000000    -0.872000000
O     5.113000000     0.346000000    -0.596000000
H     5.092000000     0.536000000     0.342000000
H     5.901000000    -0.183000000    -0.716000000
O     1.606000000    -3.665000000     4.150000000
H     1.115000000    -2.957000000     3.733000000
H     1.697000000    -4.329000000     3.467000000
