158
-3023.69404
C     0.601000000     1.241000000     0.481000000
H     1.215000000     2.055000000     0.857000000
C     1.243000000     0.026000000     0.225000000
H     2.312000000    -0.007000000     0.420000000
C     0.519000000    -1.078000000    -0.186000000
H     1.062000000    -1.943000000    -0.354000000
C    -0.850000000    -0.957000000    -0.339000000
H    -1.296000000    -1.884000000    -0.692000000
C    -1.567000000     0.193000000    -0.056000000
H    -2.650000000     0.212000000    -0.144000000
C    -0.743000000     1.334000000     0.244000000
C    -1.280000000     2.712000000     0.317000000
O    -0.665000000     3.680000000     0.766000000
O    -2.455000000     2.922000000    -0.054000000
O     4.610000000    -0.938000000     1.219000000
H     4.095000000    -0.785000000     2.010000000
H     5.171000000    -0.166000000     1.144000000
O     0.268000000     4.585000000     2.946000000
H     0.321000000     5.539000000     2.879000000
H    -0.133000000     4.309000000     2.122000000
O     1.385000000    -3.674000000     3.651000000
H     2.316000000    -3.519000000     3.492000000
H     0.977000000    -2.815000000     3.542000000
O     4.571000000    -4.438000000    -4.183000000
H     5.027000000    -4.240000000    -5.001000000
H     5.252000000    -4.788000000    -3.608000000
O     1.401000000    -6.530000000     3.204000000
H     1.393000000    -5.581000000     3.328000000
H     1.270000000    -6.650000000     2.264000000
O     2.475000000    -3.339000000    -2.946000000
H     2.709000000    -3.154000000    -2.036000000
H     3.294000000    -3.625000000    -3.350000000
O    -1.102000000     1.641000000     3.375000000
H    -1.041000000     2.457000000     2.879000000
H    -2.008000000     1.614000000     3.682000000
O    -2.188000000    -6.020000000    -3.460000000
H    -2.344000000    -5.711000000    -2.568000000
H    -1.235000000    -6.028000000    -3.547000000
O     4.897000000    -0.651000000    -4.150000000
H     4.924000000     0.093000000    -3.548000000
H     4.015000000    -0.628000000    -4.521000000
O    -5.567000000     6.167000000     1.690000000
H    -4.861000000     6.813000000     1.711000000
H    -5.273000000     5.513000000     1.056000000
O     4.210000000    -3.518000000    -0.737000000
H     4.218000000    -2.632000000    -0.375000000
H     4.991000000    -3.934000000    -0.372000000
O    -2.651000000     8.294000000     1.282000000
H    -2.996000000     8.497000000     0.413000000
H    -1.700000000     8.303000000     1.170000000
O     4.172000000     4.309000000    -2.248000000
H     3.614000000     4.077000000    -1.506000000
H     4.244000000     5.263000000    -2.204000000
O    -3.070000000    -1.030000000    -2.807000000
H    -3.612000000    -1.564000000    -3.388000000
H    -2.180000000    -1.143000000    -3.139000000
O    -5.645000000    -2.774000000    -1.398000000
H    -5.002000000    -3.445000000    -1.627000000
H    -6.061000000    -3.103000000    -0.602000000
O    -3.637000000     0.153000000     3.684000000
H    -3.777000000     0.881000000     4.289000000
H    -4.515000000    -0.083000000     3.385000000
O    -0.285000000     7.468000000    -2.921000000
H    -1.228000000     7.628000000    -2.936000000
H    -0.136000000     6.990000000    -2.105000000
O    -1.871000000    -6.532000000    -0.408000000
H    -2.612000000    -6.551000000     0.198000000
H    -2.001000000    -7.297000000    -0.969000000
O     1.842000000     2.968000000    -3.112000000
H     2.788000000     2.843000000    -3.050000000
H     1.578000000     3.238000000    -2.232000000
O    -6.253000000    -0.156000000     2.198000000
H    -5.651000000     0.408000000     1.714000000
H    -7.107000000     0.001000000     1.795000000
O    -3.209000000     2.490000000    -2.851000000
H    -4.130000000     2.310000000    -2.664000000
H    -2.792000000     2.525000000    -1.990000000
O     0.916000000     3.152000000     5.555000000
H     0.717000000     3.740000000     4.826000000
H     1.102000000     2.310000000     5.139000000
O    -5.234000000     0.305000000    -1.970000000
H    -4.356000000     0.142000000    -2.316000000
H    -5.541000000    -0.555000000    -1.681000000
O    -0.593000000    -1.727000000    -3.825000000
H    -0.133000000    -2.554000000    -3.679000000
H    -0.058000000    -1.073000000    -3.374000000
O    -2.460000000     1.743000000    -5.388000000
H    -1.955000000     2.387000000    -5.886000000
H    -2.440000000     2.067000000    -4.488000000
O     2.429000000    -4.232000000    -6.076000000
H     2.541000000    -4.173000000    -5.127000000
H     2.712000000    -3.379000000    -6.404000000
O    -4.767000000     1.594000000     0.538000000
H    -3.904000000     1.999000000     0.455000000
H    -4.924000000     1.186000000    -0.313000000
O     1.981000000     0.698000000     3.793000000
H     2.178000000    -0.053000000     4.352000000
H     1.115000000     0.507000000     3.432000000
O    -0.298000000    -1.017000000     3.189000000
H    -0.298000000    -1.200000000     2.250000000
H    -0.573000000    -0.102000000     3.254000000
O     2.064000000     0.179000000    -5.262000000
H     1.735000000     0.452000000    -4.405000000
H     1.283000000     0.129000000    -5.813000000
O     0.318000000    -4.821000000    -3.721000000
H     1.012000000    -4.347000000    -3.263000000
H     0.775000000    -5.514000000    -4.198000000
O     3.215000000    -6.321000000    -1.598000000
H     2.825000000    -6.289000000    -2.471000000
H     3.371000000    -5.404000000    -1.371000000
O    -1.705000000     6.022000000    -0.447000000
H    -2.466000000     6.367000000     0.020000000
H    -1.443000000     5.252000000     0.056000000
O     5.064000000     2.952000000     4.818000000
H     4.212000000     2.958000000     4.381000000
H     5.615000000     3.516000000     4.275000000
O    -4.674000000     4.524000000    -0.288000000
H    -3.804000000     4.172000000    -0.104000000
H    -5.270000000     3.796000000    -0.110000000
O     0.887000000    -6.937000000     0.246000000
H     0.179000000    -6.293000000     0.268000000
H     1.400000000    -6.703000000    -0.528000000
O    -3.262000000    -3.896000000     2.742000000
H    -3.796000000    -3.110000000     2.625000000
H    -3.617000000    -4.522000000     2.110000000
O     0.647000000     0.263000000    -2.775000000
H     0.548000000     1.215000000    -2.778000000
H     0.450000000     0.005000000    -1.874000000
O     5.851000000     0.524000000    -1.093000000
H     5.609000000     1.099000000    -0.367000000
H     6.684000000     0.136000000    -0.824000000
O    -5.886000000     6.741000000    -2.051000000
H    -5.465000000     5.957000000    -1.698000000
H    -6.610000000     6.915000000    -1.450000000
O    -2.112000000     5.028000000    -3.033000000
H    -2.489000000     4.152000000    -2.957000000
H    -1.981000000     5.312000000    -2.128000000
O    -0.716000000    -0.356000000    -6.013000000
H    -0.478000000    -1.027000000    -5.374000000
H    -1.428000000     0.130000000    -5.596000000
O    -7.056000000     2.884000000     1.623000000
H    -7.947000000     2.615000000     1.849000000
H    -6.563000000     2.065000000     1.577000000
O     2.071000000     4.178000000    -0.344000000
H     1.124000000     4.248000000    -0.219000000
H     2.437000000     4.857000000     0.224000000
O     5.637000000     1.759000000     1.374000000
H     4.893000000     2.248000000     1.726000000
H     6.070000000     1.394000000     2.146000000
O     0.178000000     7.751000000     1.103000000
H     0.669000000     7.062000000     0.654000000
H     0.836000000     8.214000000     1.621000000
O     3.062000000     2.983000000     2.990000000
H     2.281000000     3.512000000     2.832000000
H     2.726000000     2.100000000     3.147000000
O     4.212000000    -3.596000000     2.849000000
H     5.143000000    -3.604000000     3.067000000
H     4.186000000    -3.746000000     1.904000000
