158
-3039.31021
C     1.265000000     0.746000000     0.230000000
H     2.182000000     1.324000000     0.315000000
C     1.165000000    -0.489000000    -0.358000000
H     2.050000000    -0.967000000    -0.769000000
C    -0.060000000    -1.150000000    -0.464000000
H    -0.108000000    -2.157000000    -0.808000000
C    -1.180000000    -0.491000000    -0.006000000
H    -2.117000000    -1.042000000    -0.017000000
C    -1.149000000     0.813000000     0.426000000
H    -2.099000000     1.292000000     0.648000000
C     0.100000000     1.452000000     0.558000000
C     0.140000000     2.938000000     1.052000000
O     1.265000000     3.474000000     1.092000000
O    -0.906000000     3.493000000     1.233000000
O    -1.830000000     6.281000000     3.993000000
H    -1.619000000     7.193000000     4.193000000
H    -1.935000000     5.867000000     4.850000000
O     1.722000000     4.906000000     3.326000000
H     1.451000000     5.824000000     3.345000000
H     1.351000000     4.563000000     2.513000000
O     0.646000000    -4.034000000     4.575000000
H     0.545000000    -3.738000000     3.670000000
H     1.033000000    -3.285000000     5.029000000
O     1.786000000    -2.823000000     2.290000000
H     2.668000000    -2.810000000     2.662000000
H     1.542000000    -1.901000000     2.218000000
O     2.982000000    -4.255000000     0.095000000
H     2.470000000    -3.801000000     0.765000000
H     2.339000000    -4.780000000    -0.382000000
O     4.584000000     1.195000000    -2.138000000
H     4.892000000     1.614000000    -1.334000000
H     5.370000000     0.805000000    -2.520000000
O    -2.660000000    -1.007000000    -5.598000000
H    -2.069000000    -0.480000000    -6.137000000
H    -2.079000000    -1.562000000    -5.078000000
O    -0.876000000     3.484000000     4.112000000
H    -1.449000000     3.329000000     3.361000000
H    -0.025000000     3.692000000     3.726000000
O    -1.038000000    -2.751000000    -4.104000000
H    -1.185000000    -3.298000000    -3.332000000
H    -0.356000000    -2.136000000    -3.835000000
O     2.910000000    -4.930000000    -4.964000000
H     2.601000000    -4.699000000    -4.088000000
H     3.038000000    -4.090000000    -5.403000000
O     5.581000000    -3.634000000     0.906000000
H     4.750000000    -3.916000000     0.523000000
H     6.248000000    -4.091000000     0.394000000
O     4.063000000    -0.481000000     4.023000000
H     3.932000000    -1.428000000     4.071000000
H     3.181000000    -0.121000000     3.934000000
O    -3.894000000     0.287000000    -3.472000000
H    -3.486000000    -0.005000000    -4.287000000
H    -3.159000000     0.457000000    -2.883000000
O    -4.816000000    -0.801000000     0.497000000
H    -4.428000000    -1.161000000    -0.301000000
H    -5.272000000    -1.542000000     0.897000000
O    -4.329000000     0.857000000     4.453000000
H    -4.202000000     1.246000000     5.319000000
H    -4.999000000     1.402000000     4.042000000
O    -1.186000000    -4.237000000    -1.850000000
H    -1.795000000    -3.988000000    -1.155000000
H    -1.527000000    -5.067000000    -2.182000000
O     4.047000000     4.044000000    -3.329000000
H     3.645000000     4.201000000    -2.474000000
H     4.975000000     3.911000000    -3.136000000
O    -2.102000000     3.598000000    -2.862000000
H    -3.003000000     3.562000000    -2.539000000
H    -1.802000000     2.689000000    -2.835000000
O    -3.232000000    -3.413000000    -0.276000000
H    -3.684000000    -4.163000000     0.112000000
H    -3.614000000    -3.329000000    -1.149000000
O     1.941000000     4.935000000     6.089000000
H     2.419000000     4.126000000     6.274000000
H     1.911000000     4.983000000     5.134000000
O    -5.484000000     1.786000000     0.454000000
H    -5.212000000     0.873000000     0.360000000
H    -6.441000000     1.753000000     0.448000000
O    -0.652000000     1.354000000    -3.299000000
H     0.172000000     1.452000000    -2.821000000
H    -0.387000000     1.207000000    -4.207000000
O     4.041000000    -6.420000000     1.388000000
H     4.568000000    -6.225000000     2.163000000
H     3.595000000    -5.597000000     1.188000000
O    -3.636000000    -6.082000000     0.616000000
H    -3.964000000    -6.820000000     0.103000000
H    -2.760000000    -6.352000000     0.892000000
O    -3.789000000     3.386000000     1.900000000
H    -2.913000000     3.286000000     1.527000000
H    -4.286000000     2.650000000     1.544000000
O     1.172000000     7.644000000     2.525000000
H     0.828000000     7.201000000     1.750000000
H     1.997000000     8.032000000     2.233000000
O     3.644000000     2.691000000     1.565000000
H     3.300000000     1.798000000     1.594000000
H     2.878000000     3.236000000     1.385000000
O    -4.037000000    -3.707000000    -2.833000000
H    -4.501000000    -4.544000000    -2.847000000
H    -4.284000000    -3.282000000    -3.654000000
O     1.484000000    -0.059000000     3.415000000
H     0.973000000     0.428000000     2.769000000
H     0.905000000    -0.131000000     4.174000000
O    -1.381000000    -4.211000000     1.692000000
H    -1.566000000    -3.537000000     2.346000000
H    -1.944000000    -3.988000000     0.951000000
O     1.535000000    -1.546000000    -4.285000000
H     1.632000000    -0.653000000    -3.952000000
H     2.254000000    -1.648000000    -4.908000000
O    -1.291000000    -4.255000000    -6.247000000
H    -0.511000000    -4.777000000    -6.440000000
H    -1.000000000    -3.625000000    -5.589000000
O    -0.964000000    -6.915000000     1.118000000
H    -0.854000000    -6.118000000     1.637000000
H    -0.228000000    -7.470000000     1.373000000
O     0.677000000     6.128000000    -1.293000000
H    -0.055000000     5.532000000    -1.136000000
H     1.447000000     5.561000000    -1.318000000
O     5.083000000     3.635000000     3.662000000
H     4.498000000     3.381000000     2.948000000
H     5.019000000     2.917000000     4.291000000
O    -1.525000000     6.124000000     1.314000000
H    -1.437000000     5.199000000     1.085000000
H    -1.859000000     6.119000000     2.211000000
O     1.402000000    -3.885000000    -2.814000000
H     0.477000000    -4.025000000    -2.615000000
H     1.443000000    -2.988000000    -3.145000000
O    -1.695000000     0.342000000     3.796000000
H    -2.470000000     0.720000000     4.212000000
H    -1.632000000     0.792000000     2.953000000
O    -2.758000000    -2.297000000     3.380000000
H    -2.213000000    -1.514000000     3.307000000
H    -3.637000000    -1.961000000     3.556000000
O     2.373000000     1.538000000    -3.842000000
H     2.850000000     2.249000000    -4.272000000
H     2.911000000     1.315000000    -3.082000000
O     1.305000000    -6.478000000    -1.258000000
H     1.069000000    -5.891000000    -1.977000000
H     0.604000000    -6.365000000    -0.617000000
O     6.458000000    -1.185000000    -0.274000000
H     6.442000000    -0.250000000    -0.071000000
H     5.706000000    -1.545000000     0.196000000
O    -4.687000000     3.381000000    -1.528000000
H    -5.497000000     3.361000000    -2.038000000
H    -4.796000000     2.688000000    -0.877000000
O    -5.630000000     5.205000000     2.341000000
H    -6.374000000     4.631000000     2.523000000
H    -4.924000000     4.610000000     2.089000000
O    -2.601000000     3.225000000     6.248000000
H    -2.113000000     3.109000000     5.433000000
H    -3.227000000     3.922000000     6.055000000
O     2.873000000     4.360000000    -1.052000000
H     2.281000000     4.055000000    -0.365000000
H     3.367000000     5.071000000    -0.644000000
O     5.909000000     2.061000000     0.166000000
H     6.662000000     2.582000000    -0.114000000
H     5.322000000     2.693000000     0.581000000
O     6.238000000     0.732000000     2.785000000
H     5.977000000     1.328000000     2.083000000
H     5.416000000     0.352000000     3.094000000
