158
-3036.80080
C     0.973000000     0.226000000     1.057000000
H     1.774000000     0.330000000     1.785000000
C     1.323000000    -0.020000000    -0.266000000
H     2.351000000     0.132000000    -0.583000000
C     0.315000000    -0.285000000    -1.155000000
H     0.555000000    -0.368000000    -2.201000000
C    -1.034000000    -0.325000000    -0.761000000
H    -1.813000000    -0.557000000    -1.483000000
C    -1.381000000    -0.076000000     0.553000000
H    -2.424000000    -0.115000000     0.859000000
C    -0.364000000     0.210000000     1.515000000
C    -0.679000000     0.507000000     2.919000000
O     0.111000000     1.112000000     3.642000000
O    -1.830000000     0.291000000     3.283000000
O     4.636000000    -2.951000000    -1.911000000
H     5.154000000    -2.666000000    -2.664000000
H     4.371000000    -3.845000000    -2.128000000
O    -3.467000000     3.290000000    -3.391000000
H    -4.405000000     3.329000000    -3.580000000
H    -3.418000000     2.961000000    -2.493000000
O    -1.492000000    -0.875000000    -6.984000000
H    -1.206000000    -1.550000000    -6.369000000
H    -1.447000000    -1.298000000    -7.842000000
O    -1.993000000     2.794000000     5.298000000
H    -1.440000000     2.987000000     6.055000000
H    -1.653000000     1.965000000     4.959000000
O     5.702000000    -0.480000000     2.549000000
H     5.807000000    -1.355000000     2.922000000
H     5.388000000    -0.636000000     1.658000000
O     1.054000000     5.177000000    -3.497000000
H     0.985000000     6.097000000    -3.241000000
H     0.694000000     4.694000000    -2.753000000
O    -3.663000000    -1.752000000     3.157000000
H    -3.966000000    -1.188000000     2.446000000
H    -2.791000000    -1.420000000     3.372000000
O    -2.060000000    -3.821000000     2.685000000
H    -2.596000000    -4.586000000     2.891000000
H    -2.527000000    -3.087000000     3.084000000
O    -2.132000000     2.821000000    -5.709000000
H    -2.489000000     3.273000000    -4.944000000
H    -2.774000000     2.979000000    -6.402000000
O    -6.173000000    -1.695000000     4.176000000
H    -6.858000000    -2.355000000     4.078000000
H    -5.405000000    -2.082000000     3.757000000
O     2.552000000    -1.697000000    -3.324000000
H     2.080000000    -2.503000000    -3.115000000
H     3.338000000    -1.993000000    -3.783000000
O     0.078000000     2.363000000    -1.801000000
H    -0.351000000     1.565000000    -1.494000000
H    -0.009000000     2.331000000    -2.754000000
O    -4.217000000     1.491000000     2.863000000
H    -3.967000000     2.411000000     2.944000000
H    -3.401000000     1.008000000     2.996000000
O     1.442000000    -0.462000000    -5.416000000
H     0.941000000    -1.102000000    -5.922000000
H     1.999000000    -0.991000000    -4.845000000
O     6.925000000     0.852000000    -2.905000000
H     7.198000000     1.766000000    -2.983000000
H     6.588000000     0.778000000    -2.012000000
O     3.208000000     2.567000000    -1.877000000
H     2.968000000     2.820000000    -0.986000000
H     2.609000000     1.851000000    -2.092000000
O    -2.441000000     3.130000000    -0.075000000
H    -2.235000000     3.816000000     0.561000000
H    -1.605000000     2.940000000    -0.500000000
O    -1.717000000    -5.341000000     0.110000000
H    -2.132000000    -4.983000000     0.895000000
H    -0.923000000    -4.819000000     0.000000000
O     3.101000000    -3.052000000     2.178000000
H     2.249000000    -3.201000000     2.587000000
H     3.703000000    -3.615000000     2.665000000
O    -4.891000000    -1.196000000     0.669000000
H    -4.507000000    -1.933000000     0.194000000
H    -5.762000000    -1.092000000     0.285000000
O    -5.780000000     0.961000000     5.154000000
H    -5.306000000     1.191000000     4.354000000
H    -5.880000000     0.010000000     5.108000000
O     4.741000000    -1.600000000    -5.113000000
H     5.680000000    -1.466000000    -4.986000000
H     4.548000000    -1.165000000    -5.944000000
O     2.847000000     2.137000000    -5.433000000
H     3.185000000     2.350000000    -4.564000000
H     2.288000000     1.373000000    -5.292000000
O    -5.270000000    -0.620000000    -2.482000000
H    -4.579000000    -0.588000000    -3.145000000
H    -4.993000000     0.010000000    -1.817000000
O     0.294000000     5.493000000     4.389000000
H    -0.061000000     5.058000000     3.614000000
H     1.021000000     6.019000000     4.056000000
O    -3.709000000     0.903000000     7.652000000
H    -4.245000000     0.202000000     7.283000000
H    -2.956000000     0.964000000     7.064000000
O     1.737000000     0.059000000     5.280000000
H     1.264000000    -0.044000000     6.106000000
H     1.092000000     0.432000000     4.679000000
O     6.294000000     0.633000000    -0.246000000
H     5.657000000    -0.063000000    -0.085000000
H     6.014000000     1.350000000     0.324000000
O    -3.294000000    -3.514000000    -5.099000000
H    -2.371000000    -3.766000000    -5.082000000
H    -3.635000000    -3.794000000    -4.249000000
O     0.051000000    -2.626000000     6.285000000
H    -0.066000000    -3.529000000     6.578000000
H     0.068000000    -2.112000000     7.092000000
O    -3.310000000    -3.107000000    -0.182000000
H    -2.459000000    -2.862000000     0.183000000
H    -3.165000000    -3.971000000    -0.568000000
O     0.370000000    -3.103000000     0.369000000
H     0.208000000    -2.174000000     0.200000000
H     0.981000000    -3.109000000     1.106000000
O    -4.325000000     1.206000000    -0.819000000
H    -3.701000000     1.785000000    -0.381000000
H    -4.544000000     0.547000000    -0.160000000
O    -1.230000000     3.478000000     2.636000000
H    -1.861000000     3.132000000     3.269000000
H    -0.579000000     2.783000000     2.544000000
O    -0.479000000    -2.787000000    -5.237000000
H    -0.044000000    -2.740000000    -4.385000000
H    -0.215000000    -3.635000000    -5.593000000
O    -1.705000000    -5.482000000    -3.418000000
H    -1.597000000    -6.129000000    -4.114000000
H    -0.822000000    -5.146000000    -3.265000000
O     1.583000000     3.786000000    -0.082000000
H     0.947000000     3.246000000    -0.551000000
H     1.735000000     3.318000000     0.739000000
O    -0.320000000     1.589000000    -4.320000000
H    -0.976000000     1.996000000    -4.886000000
H    -0.072000000     0.787000000    -4.780000000
O     2.497000000     3.126000000     5.434000000
H     1.589000000     3.209000000     5.141000000
H     2.433000000     2.729000000     6.303000000
O    -3.624000000     0.420000000    -4.999000000
H    -3.344000000     1.318000000    -4.823000000
H    -2.905000000     0.040000000    -5.504000000
O     4.752000000     1.990000000     3.670000000
H     4.562000000     1.934000000     4.606000000
H     4.889000000     1.082000000     3.398000000
O    -1.915000000    -0.660000000     5.685000000
H    -1.221000000    -1.319000000     5.647000000
H    -1.862000000    -0.209000000     4.842000000
O     2.276000000     2.605000000     2.508000000
H     1.796000000     1.933000000     2.991000000
H     3.127000000     2.653000000     2.944000000
O    -4.539000000    -1.533000000     6.454000000
H    -3.633000000    -1.482000000     6.150000000
H    -5.056000000    -1.624000000     5.654000000
O    -4.142000000     4.379000000     5.780000000
H    -3.383000000     3.807000000     5.667000000
H    -4.031000000     4.755000000     6.653000000
O     4.361000000    -1.255000000     0.337000000
H     4.536000000    -1.664000000    -0.510000000
H     4.046000000    -1.971000000     0.888000000
O     0.676000000    -3.731000000     3.615000000
H    -0.050000000    -4.027000000     3.067000000
H     0.256000000    -3.269000000     4.341000000
O     0.707000000    -3.551000000    -2.712000000
H     1.125000000    -4.394000000    -2.535000000
H     0.788000000    -3.066000000    -1.891000000
