158
-3052.04151
C     0.969000000     1.092000000     0.230000000
H     1.735000000     1.805000000     0.526000000
C    -0.274000000     1.017000000     0.848000000
H    -0.543000000     1.736000000     1.617000000
C    -1.156000000    -0.008000000     0.472000000
H    -2.117000000    -0.110000000     0.927000000
C    -0.759000000    -0.941000000    -0.445000000
H    -1.474000000    -1.752000000    -0.554000000
C     0.475000000    -0.852000000    -1.075000000
H     0.763000000    -1.621000000    -1.788000000
C     1.423000000     0.115000000    -0.693000000
C     2.894000000     0.044000000    -1.191000000
O     3.070000000    -0.526000000    -2.280000000
O     3.794000000     0.518000000    -0.596000000
O    -4.541000000     2.002000000     4.708000000
H    -3.725000000     1.513000000     4.815000000
H    -5.178000000     1.522000000     5.238000000
O     2.754000000    -4.912000000    -2.248000000
H     3.372000000    -4.237000000    -2.526000000
H     1.968000000    -4.747000000    -2.770000000
O    -4.136000000    -0.990000000    -1.157000000
H    -3.812000000    -0.244000000    -1.661000000
H    -3.562000000    -1.715000000    -1.405000000
O    -0.776000000     1.546000000    -4.035000000
H    -0.065000000     0.983000000    -4.340000000
H    -0.711000000     2.330000000    -4.581000000
O     0.245000000     0.331000000     4.418000000
H     0.377000000    -0.349000000     5.078000000
H     0.594000000    -0.046000000     3.611000000
O    -2.257000000     0.817000000     5.233000000
H    -1.435000000     1.008000000     4.782000000
H    -2.489000000    -0.066000000     4.944000000
O    -6.631000000     3.113000000    -0.898000000
H    -5.786000000     2.936000000    -0.485000000
H    -6.424000000     3.691000000    -1.632000000
O     4.480000000     2.473000000     0.855000000
H     4.090000000     1.721000000     0.408000000
H     5.352000000     2.555000000     0.468000000
O    -8.014000000    -0.657000000     1.717000000
H    -7.674000000    -0.145000000     0.983000000
H    -7.565000000    -1.500000000     1.650000000
O    -2.461000000    -5.069000000     2.823000000
H    -2.390000000    -5.862000000     3.354000000
H    -1.845000000    -4.456000000     3.225000000
O    -0.472000000     4.947000000    -0.251000000
H     0.091000000     5.712000000    -0.133000000
H    -0.743000000     4.709000000     0.636000000
O     5.251000000     3.580000000     4.211000000
H     4.724000000     3.629000000     5.008000000
H     4.772000000     2.977000000     3.643000000
O    -3.051000000    -0.046000000     7.416000000
H    -2.899000000     0.424000000     6.595000000
H    -2.825000000     0.586000000     8.098000000
O     2.156000000     0.386000000    -4.795000000
H     2.556000000     0.241000000    -3.937000000
H     2.022000000     1.333000000    -4.840000000
O     0.908000000    -4.621000000    -4.390000000
H     0.363000000    -3.900000000    -4.704000000
H     0.626000000    -5.377000000    -4.906000000
O    -1.063000000    -2.819000000     3.758000000
H    -0.514000000    -2.937000000     4.533000000
H    -0.515000000    -2.327000000     3.148000000
O     4.231000000    -2.736000000    -3.290000000
H     5.067000000    -2.432000000    -3.644000000
H     3.797000000    -1.940000000    -2.985000000
O    -2.696000000     3.822000000    -1.149000000
H    -2.727000000     4.432000000    -1.886000000
H    -1.896000000     4.056000000    -0.678000000
O     5.276000000     1.713000000    -2.469000000
H     4.885000000     2.587000000    -2.467000000
H     4.830000000     1.249000000    -1.761000000
O    -3.319000000     1.374000000    -2.687000000
H    -2.432000000     1.334000000    -3.043000000
H    -3.281000000     2.067000000    -2.028000000
O     6.876000000     2.987000000    -0.203000000
H     7.778000000     3.266000000    -0.359000000
H     6.494000000     2.908000000    -1.077000000
O    -1.280000000     4.596000000     2.571000000
H    -0.575000000     4.824000000     3.177000000
H    -2.033000000     4.419000000     3.135000000
O     2.317000000    -3.764000000     0.554000000
H     3.074000000    -3.699000000    -0.029000000
H     1.601000000    -4.049000000    -0.013000000
O     2.300000000     2.261000000     3.639000000
H     1.539000000     1.680000000     3.621000000
H     2.297000000     2.633000000     4.521000000
O     3.567000000     6.716000000     1.575000000
H     3.126000000     5.889000000     1.771000000
H     4.494000000     6.536000000     1.734000000
O    -3.372000000     4.271000000     3.986000000
H    -3.830000000     3.447000000     4.154000000
H    -3.615000000     4.834000000     4.722000000
O     6.392000000     0.202000000     2.126000000
H     6.502000000     0.890000000     1.469000000
H     6.982000000    -0.496000000     1.842000000
O     2.631000000     4.183000000     1.713000000
H     2.141000000     3.785000000     2.432000000
H     3.279000000     3.521000000     1.469000000
O     0.947000000    -1.589000000     2.035000000
H     0.669000000    -0.905000000     1.426000000
H     1.401000000    -2.229000000     1.486000000
O     3.066000000    -3.332000000    -5.760000000
H     2.255000000    -3.683000000    -5.391000000
H     3.637000000    -3.203000000    -5.003000000
O     4.844000000    -2.350000000    -0.374000000
H     4.494000000    -1.599000000     0.104000000
H     5.054000000    -2.005000000    -1.242000000
O    -3.162000000    -3.660000000    -1.281000000
H    -3.108000000    -4.282000000    -2.007000000
H    -3.518000000    -4.170000000    -0.554000000
O    -3.570000000    -2.141000000     4.628000000
H    -2.627000000    -2.285000000     4.553000000
H    -3.847000000    -1.899000000     3.744000000
O    -2.130000000    -1.044000000    -5.029000000
H    -1.839000000    -0.342000000    -4.447000000
H    -3.069000000    -1.120000000    -4.860000000
O    -4.292000000    -4.610000000     0.778000000
H    -3.719000000    -4.989000000     1.445000000
H    -4.964000000    -5.276000000     0.634000000
O     2.015000000     4.199000000    -1.031000000
H     1.061000000     4.212000000    -0.951000000
H     2.331000000     4.479000000    -0.172000000
O    -6.619000000    -3.207000000     1.288000000
H    -6.050000000    -3.666000000     0.670000000
H    -6.247000000    -3.404000000     2.148000000
O    -5.622000000    -3.586000000     3.775000000
H    -6.385000000    -3.350000000     4.302000000
H    -4.884000000    -3.171000000     4.222000000
O     4.224000000     4.225000000    -2.363000000
H     3.581000000     4.271000000    -1.656000000
H     3.698000000     4.188000000    -3.162000000
O    -0.825000000    -3.925000000     0.614000000
H    -1.270000000    -4.042000000    -0.225000000
H    -1.384000000    -3.319000000     1.100000000
O    -6.779000000     2.789000000     3.206000000
H    -6.008000000     2.662000000     3.760000000
H    -6.453000000     3.278000000     2.451000000
O    -6.620000000     0.098000000    -0.789000000
H    -5.757000000    -0.307000000    -0.871000000
H    -6.527000000     0.949000000    -1.219000000
O     3.744000000    -0.336000000     2.456000000
H     3.442000000     0.557000000     2.286000000
H     4.698000000    -0.281000000     2.401000000
O    -0.494000000    -2.921000000    -5.817000000
H    -1.166000000    -2.257000000    -5.662000000
H    -0.175000000    -2.737000000    -6.700000000
O     1.978000000    -1.131000000    -6.907000000
H     2.292000000    -1.975000000    -6.584000000
H     2.131000000    -0.525000000    -6.182000000
O     6.206000000    -0.699000000    -3.045000000
H     7.037000000    -0.640000000    -2.574000000
H     5.741000000     0.105000000    -2.812000000
O    -4.324000000     2.813000000     0.533000000
H    -3.948000000     2.001000000     0.871000000
H    -3.648000000     3.168000000    -0.045000000
O    -3.768000000    -2.152000000     1.695000000
H    -4.001000000    -3.073000000     1.580000000
H    -3.889000000    -1.764000000     0.828000000
