158
-3021.79744
C     1.045000000     1.019000000     0.019000000
H     1.891000000     1.696000000    -0.063000000
C     1.279000000    -0.322000000    -0.013000000
H     2.284000000    -0.653000000    -0.264000000
C     0.236000000    -1.194000000    -0.011000000
H     0.388000000    -2.262000000    -0.090000000
C    -1.093000000    -0.780000000     0.272000000
H    -1.924000000    -1.478000000     0.205000000
C    -1.309000000     0.578000000     0.410000000
H    -2.316000000     0.969000000     0.526000000
C    -0.270000000     1.514000000     0.262000000
C    -0.652000000     3.015000000     0.145000000
O     0.207000000     3.819000000     0.007000000
O    -1.806000000     3.380000000     0.330000000
O     5.955000000     2.491000000     1.622000000
H     5.200000000     1.999000000     1.945000000
H     6.327000000     2.898000000     2.404000000
O    -2.066000000     6.058000000     0.483000000
H    -2.017000000     5.143000000     0.205000000
H    -1.969000000     6.560000000    -0.326000000
O     4.432000000    -4.844000000     0.017000000
H     5.366000000    -4.714000000     0.186000000
H     3.993000000    -4.402000000     0.743000000
O     1.374000000     4.968000000     2.208000000
H     1.979000000     4.261000000     2.433000000
H     1.062000000     4.747000000     1.331000000
O    -0.322000000     4.555000000    -4.362000000
H    -0.106000000     3.625000000    -4.427000000
H    -1.138000000     4.577000000    -3.861000000
O    -2.150000000    -2.337000000     3.161000000
H    -1.817000000    -1.440000000     3.142000000
H    -3.075000000    -2.244000000     3.392000000
O    -1.824000000    -0.113000000    -4.039000000
H    -1.451000000    -0.500000000    -3.247000000
H    -1.456000000    -0.630000000    -4.755000000
O    -1.929000000    -3.739000000     0.844000000
H    -1.194000000    -4.334000000     0.694000000
H    -1.836000000    -3.469000000     1.758000000
O     4.446000000     0.112000000    -1.848000000
H     4.253000000     1.035000000    -2.008000000
H     4.612000000     0.062000000    -0.906000000
O    -4.491000000    -2.669000000    -3.869000000
H    -4.100000000    -3.132000000    -3.129000000
H    -4.393000000    -3.271000000    -4.607000000
O     0.556000000     1.781000000     4.309000000
H     1.056000000     2.577000000     4.492000000
H    -0.346000000     2.085000000     4.201000000
O    -2.820000000    -6.647000000    -3.364000000
H    -2.252000000    -6.210000000    -2.729000000
H    -3.486000000    -7.080000000    -2.830000000
O     5.546000000    -1.069000000     1.031000000
H     5.730000000    -1.907000000     1.456000000
H     6.407000000    -0.736000000     0.777000000
O     2.500000000    -4.642000000    -4.871000000
H     2.347000000    -5.485000000    -5.298000000
H     2.956000000    -4.863000000    -4.059000000
O     1.300000000     7.978000000     0.596000000
H     1.057000000     7.592000000     1.437000000
H     2.182000000     8.322000000     0.736000000
O    -4.979000000     1.190000000    -0.499000000
H    -5.400000000     0.556000000    -1.079000000
H    -5.185000000     0.882000000     0.383000000
O     0.473000000     6.137000000     4.570000000
H     0.582000000     5.763000000     3.696000000
H     0.881000000     5.500000000     5.156000000
O    -0.736000000    -5.542000000    -2.039000000
H    -0.446000000    -6.422000000    -2.280000000
H    -0.442000000    -5.431000000    -1.135000000
O    -3.372000000     3.407000000    -1.671000000
H    -4.127000000     2.920000000    -1.340000000
H    -2.737000000     3.379000000    -0.955000000
O    -5.405000000     1.504000000     2.269000000
H    -5.271000000     2.347000000     1.835000000
H    -4.728000000     1.473000000     2.946000000
O    -4.453000000     3.738000000     1.211000000
H    -3.619000000     3.570000000     0.773000000
H    -4.262000000     4.446000000     1.827000000
O     0.701000000    -0.347000000    -2.878000000
H     1.334000000    -1.064000000    -2.925000000
H     0.565000000    -0.209000000    -1.940000000
O     3.178000000    -4.484000000     2.825000000
H     2.352000000    -4.048000000     2.613000000
H     2.931000000    -5.393000000     2.995000000
O    -1.788000000     3.824000000     5.695000000
H    -1.145000000     4.520000000     5.832000000
H    -2.060000000     3.925000000     4.783000000
O    -4.751000000    -3.043000000     0.512000000
H    -3.820000000    -3.261000000     0.535000000
H    -4.916000000    -2.793000000    -0.397000000
O    -3.041000000    -3.653000000    -1.736000000
H    -2.364000000    -3.498000000    -2.394000000
H    -2.557000000    -3.908000000    -0.950000000
O     0.669000000    -0.789000000     3.256000000
H     0.977000000    -0.024000000     3.743000000
H     0.426000000    -0.444000000     2.397000000
O     0.662000000    -3.411000000     2.475000000
H     0.644000000    -2.457000000     2.399000000
H     0.098000000    -3.602000000     3.224000000
O    -1.908000000     2.882000000     3.078000000
H    -2.033000000     3.041000000     2.143000000
H    -2.326000000     2.036000000     3.236000000
O     1.823000000     6.066000000    -3.519000000
H     1.778000000     5.841000000    -2.590000000
H     1.045000000     5.661000000    -3.902000000
O     0.184000000     1.787000000    -4.807000000
H    -0.720000000     1.574000000    -5.036000000
H     0.458000000     1.077000000    -4.227000000
O    -0.197000000    -3.270000000    -3.287000000
H    -0.425000000    -4.097000000    -2.864000000
H     0.666000000    -3.051000000    -2.934000000
O     6.672000000    -1.661000000    -2.517000000
H     6.216000000    -0.829000000    -2.391000000
H     6.196000000    -2.090000000    -3.228000000
O     0.392000000    -5.229000000     0.502000000
H     0.964000000    -5.993000000     0.439000000
H     0.813000000    -4.666000000     1.152000000
O    -1.176000000     7.550000000     2.685000000
H    -1.427000000     6.843000000     2.091000000
H    -0.667000000     7.117000000     3.370000000
O    -3.606000000     6.008000000    -2.904000000
H    -3.625000000     5.128000000    -2.527000000
H    -3.002000000     6.496000000    -2.344000000
O    -3.589000000     0.820000000     4.221000000
H    -3.013000000     0.688000000     4.975000000
H    -4.281000000     0.169000000     4.331000000
O    -1.228000000    -5.107000000    -5.116000000
H    -1.711000000    -5.597000000    -4.451000000
H    -0.815000000    -4.391000000    -4.634000000
O     1.572000000     5.782000000    -0.987000000
H     1.354000000     6.492000000    -0.382000000
H     0.989000000     5.066000000    -0.735000000
O     5.440000000    -3.301000000     3.292000000
H     5.433000000    -3.291000000     4.249000000
H     4.570000000    -3.617000000     3.050000000
O     2.716000000    -2.205000000    -2.564000000
H     3.372000000    -1.580000000    -2.255000000
H     3.155000000    -3.055000000    -2.520000000
O     3.743000000    -5.059000000    -2.564000000
H     4.102000000    -4.760000000    -1.729000000
H     4.329000000    -5.763000000    -2.839000000
O     1.898000000    -6.751000000     2.696000000
H     1.084000000    -6.806000000     3.196000000
H     2.123000000    -7.662000000     2.505000000
O     4.233000000     6.022000000    -0.150000000
H     3.299000000     5.893000000    -0.315000000
H     4.265000000     6.690000000     0.535000000
O     3.960000000     0.776000000     2.277000000
H     3.936000000     0.520000000     3.199000000
H     4.184000000    -0.029000000     1.811000000
O     1.624000000    -7.289000000    -0.424000000
H     1.362000000    -7.533000000    -1.312000000
H     2.542000000    -7.555000000    -0.363000000
O    -2.689000000     2.375000000    -4.075000000
H    -2.386000000     1.489000000    -3.875000000
H    -2.835000000     2.777000000    -3.219000000
O     3.421000000     3.318000000     3.218000000
H     4.039000000     3.858000000     2.725000000
H     3.576000000     2.428000000     2.902000000
