158
-3004.57355
C     0.254000000     1.426000000     0.283000000
H     0.632000000     2.442000000     0.359000000
C     1.162000000     0.405000000     0.333000000
H     2.216000000     0.618000000     0.490000000
C     0.845000000    -0.920000000    -0.056000000
H     1.560000000    -1.651000000    -0.047000000
C    -0.494000000    -1.249000000    -0.311000000
H    -0.751000000    -2.290000000    -0.493000000
C    -1.510000000    -0.282000000    -0.110000000
H    -2.555000000    -0.577000000    -0.056000000
C    -1.136000000     1.101000000     0.128000000
C    -2.169000000     2.185000000     0.417000000
O    -1.747000000     3.281000000     0.633000000
O    -3.361000000     1.991000000     0.459000000
O    -6.529000000     3.796000000     3.968000000
H    -5.840000000     3.133000000     4.008000000
H    -6.125000000     4.584000000     4.332000000
O     5.160000000     0.908000000     2.120000000
H     6.039000000     0.710000000     2.442000000
H     5.240000000     1.776000000     1.724000000
O    -4.098000000     4.780000000    -2.847000000
H    -4.301000000     3.877000000    -2.603000000
H    -4.865000000     5.074000000    -3.337000000
O    -1.805000000     3.743000000     3.339000000
H    -1.955000000     4.687000000     3.388000000
H    -1.747000000     3.558000000     2.402000000
O     0.886000000    -3.150000000     2.776000000
H     1.545000000    -2.557000000     3.137000000
H     0.076000000    -2.640000000     2.784000000
O     4.469000000    -3.081000000    -3.623000000
H     4.116000000    -2.392000000    -3.061000000
H     4.606000000    -2.654000000    -4.469000000
O     1.144000000    -6.293000000     2.424000000
H     1.007000000    -5.349000000     2.347000000
H     1.514000000    -6.551000000     1.579000000
O     4.062000000    -0.044000000    -1.632000000
H     4.986000000     0.181000000    -1.745000000
H     3.981000000    -0.262000000    -0.703000000
O    -2.630000000     1.022000000     3.336000000
H    -3.390000000     1.200000000     2.783000000
H    -2.151000000     1.851000000     3.360000000
O    -2.049000000    -4.535000000    -4.079000000
H    -1.966000000    -4.461000000    -5.030000000
H    -1.436000000    -3.887000000    -3.734000000
O     5.713000000     3.981000000    -1.745000000
H     6.043000000     3.487000000    -0.995000000
H     4.799000000     3.710000000    -1.827000000
O     4.067000000    -1.369000000     1.273000000
H     4.629000000    -0.618000000     1.463000000
H     3.528000000    -1.469000000     2.058000000
O    -2.850000000     6.426000000     2.758000000
H    -3.515000000     5.791000000     2.491000000
H    -3.280000000     6.957000000     3.428000000
O    -4.031000000    -0.362000000    -2.833000000
H    -3.156000000    -0.699000000    -3.027000000
H    -4.351000000    -0.029000000    -3.672000000
O    -3.816000000    -0.178000000     5.514000000
H    -4.302000000    -0.912000000     5.138000000
H    -3.349000000     0.206000000     4.772000000
O    -5.974000000    -1.321000000    -1.095000000
H    -5.140000000    -1.089000000    -1.503000000
H    -5.810000000    -2.166000000    -0.678000000
O    -3.704000000    -5.534000000    -0.401000000
H    -3.680000000    -6.116000000     0.358000000
H    -3.516000000    -4.666000000    -0.044000000
O     2.825000000     6.107000000     0.057000000
H     3.701000000     5.801000000     0.294000000
H     2.943000000     7.036000000    -0.145000000
O    -4.621000000     2.153000000    -1.657000000
H    -4.439000000     1.298000000    -2.048000000
H    -4.105000000     2.163000000    -0.852000000
O     0.958000000     3.404000000     4.234000000
H     0.047000000     3.675000000     4.115000000
H     0.938000000     2.451000000     4.142000000
O    -6.406000000    -0.568000000     2.653000000
H    -6.035000000    -1.079000000     3.372000000
H    -7.292000000    -0.915000000     2.546000000
O     1.097000000    -0.012000000    -3.017000000
H     1.926000000    -0.423000000    -3.264000000
H     1.091000000    -0.042000000    -2.061000000
O     1.236000000    -0.915000000    -5.905000000
H     0.886000000    -0.035000000    -5.765000000
H     0.850000000    -1.197000000    -6.735000000
O    -4.997000000     1.652000000     2.350000000
H    -4.623000000     1.742000000     1.474000000
H    -5.534000000     0.861000000     2.301000000
O    -1.429000000    -6.595000000    -1.960000000
H    -1.707000000    -6.163000000    -2.768000000
H    -2.048000000    -6.286000000    -1.299000000
O     1.561000000     0.889000000     3.983000000
H     1.305000000     0.345000000     4.728000000
H     1.882000000     0.267000000     3.331000000
O    -0.762000000    -0.939000000     2.962000000
H    -1.647000000    -0.644000000     3.176000000
H    -0.362000000    -0.192000000     2.517000000
O     3.283000000     2.908000000    -2.620000000
H     2.654000000     3.158000000    -1.943000000
H     3.320000000     1.953000000    -2.572000000
O     0.767000000    -2.786000000    -3.278000000
H     0.737000000    -1.835000000    -3.383000000
H     0.465000000    -3.130000000    -4.118000000
O     2.608000000    -4.868000000    -2.557000000
H     3.432000000    -4.650000000    -2.992000000
H     1.981000000    -4.230000000    -2.899000000
O     7.719000000    -1.452000000    -0.595000000
H     8.305000000    -1.882000000    -1.217000000
H     7.246000000    -0.805000000    -1.119000000
O     3.411000000    -4.737000000     0.460000000
H     3.319000000    -4.676000000    -0.491000000
H     3.525000000    -3.832000000     0.748000000
O     6.762000000     0.586000000    -2.139000000
H     6.926000000     0.304000000    -3.039000000
H     7.407000000     1.275000000    -1.983000000
O    -1.364000000     6.027000000     0.214000000
H    -1.555000000     6.607000000     0.951000000
H    -1.543000000     5.148000000     0.549000000
O    -4.520000000     4.831000000     1.276000000
H    -4.021000000     4.204000000     0.752000000
H    -5.381000000     4.426000000     1.378000000
O     1.464000000    -7.396000000    -0.726000000
H     0.598000000    -7.636000000    -0.395000000
H     1.408000000    -6.454000000    -0.884000000
O     1.380000000     4.394000000    -1.214000000
H     1.845000000     5.067000000    -0.717000000
H     0.458000000     4.528000000    -0.995000000
O     5.573000000    -6.642000000     0.498000000
H     5.283000000    -7.115000000     1.278000000
H     4.898000000    -5.978000000     0.356000000
O    -4.842000000     6.622000000    -0.854000000
H    -4.385000000     6.033000000    -1.456000000
H    -4.937000000     6.114000000    -0.049000000
O    -1.477000000     6.219000000    -2.791000000
H    -2.206000000     5.602000000    -2.725000000
H    -1.051000000     6.179000000    -1.935000000
O     6.252000000     3.169000000     1.036000000
H     5.633000000     3.899000000     1.070000000
H     6.872000000     3.348000000     1.743000000
O    -6.883000000     1.124000000    -0.509000000
H    -6.076000000     1.582000000    -0.746000000
H    -6.705000000     0.205000000    -0.708000000
O     0.020000000     1.811000000    -4.908000000
H    -0.100000000     1.272000000    -4.126000000
H    -0.755000000     2.373000000    -4.932000000
O    -7.218000000     3.754000000     1.277000000
H    -7.286000000     3.839000000     2.228000000
H    -8.003000000     3.268000000     1.024000000
O     2.777000000     6.135000000     3.359000000
H     2.144000000     5.517000000     2.995000000
H     2.386000000     6.420000000     4.185000000
O    -0.118000000     7.966000000     2.061000000
H     0.136000000     7.271000000     1.454000000
H    -0.021000000     7.573000000     2.929000000
O     3.784000000     2.760000000     3.840000000
H     4.211000000     2.067000000     3.337000000
H     2.865000000     2.494000000     3.884000000
O     2.897000000    -1.580000000     3.817000000
H     2.573000000    -1.218000000     4.641000000
H     3.334000000    -2.394000000     4.068000000
