158
-3021.79142
C    -0.618000000     1.259000000    -0.543000000
H    -1.037000000     2.205000000    -0.877000000
C     0.708000000     0.992000000    -0.563000000
H     1.388000000     1.730000000    -0.981000000
C     1.208000000    -0.221000000    -0.036000000
H     2.290000000    -0.458000000    -0.168000000
C     0.324000000    -1.162000000     0.487000000
H     0.725000000    -2.133000000     0.765000000
C    -1.044000000    -0.907000000     0.469000000
H    -1.730000000    -1.695000000     0.768000000
C    -1.505000000     0.319000000     0.026000000
C    -3.025000000     0.595000000     0.125000000
O    -3.490000000     1.583000000    -0.508000000
O    -3.752000000    -0.074000000     0.773000000
O    -3.194000000    -3.253000000    -3.852000000
H    -4.131000000    -3.161000000    -4.023000000
H    -3.136000000    -3.387000000    -2.906000000
O    -4.012000000     1.288000000    -3.089000000
H    -3.376000000     1.792000000    -3.596000000
H    -3.584000000     1.142000000    -2.245000000
O    -4.944000000     2.593000000     3.510000000
H    -4.732000000     1.664000000     3.601000000
H    -4.521000000     2.856000000     2.693000000
O     4.188000000     3.446000000     4.007000000
H     3.276000000     3.224000000     3.818000000
H     4.546000000     2.660000000     4.419000000
O     1.680000000    -2.422000000     5.353000000
H     2.322000000    -1.988000000     4.792000000
H     1.038000000    -1.741000000     5.554000000
O    -6.710000000    -1.351000000    -1.291000000
H    -5.994000000    -1.964000000    -1.454000000
H    -6.275000000    -0.527000000    -1.073000000
O     0.054000000    -1.183000000    -3.001000000
H    -0.050000000    -0.906000000    -2.091000000
H     0.071000000    -2.139000000    -2.961000000
O     5.115000000     1.408000000     1.863000000
H     4.914000000     2.015000000     2.575000000
H     4.863000000     1.878000000     1.068000000
O     7.670000000     0.244000000     2.386000000
H     7.925000000     0.563000000     1.520000000
H     6.741000000     0.460000000     2.457000000
O     7.103000000    -0.249000000    -2.328000000
H     6.511000000    -0.595000000    -2.996000000
H     7.504000000    -1.026000000    -1.937000000
O     2.816000000     0.520000000     4.233000000
H     2.385000000     0.873000000     3.455000000
H     3.637000000     0.152000000     3.906000000
O     0.227000000    -3.950000000     2.768000000
H    -0.400000000    -4.336000000     2.157000000
H     0.642000000    -4.700000000     3.193000000
O    -3.932000000    -2.885000000     4.112000000
H    -4.364000000    -3.549000000     3.573000000
H    -4.177000000    -3.109000000     5.010000000
O    -4.183000000    -4.813000000    -1.473000000
H    -4.466000000    -5.719000000    -1.349000000
H    -4.615000000    -4.329000000    -0.769000000
O    -1.546000000    -5.322000000    -1.455000000
H    -2.404000000    -4.905000000    -1.373000000
H    -1.673000000    -6.001000000    -2.118000000
O     4.716000000    -1.531000000    -3.393000000
H     4.361000000    -2.227000000    -3.945000000
H     4.463000000    -1.777000000    -2.504000000
O    -5.970000000    -0.290000000    -4.233000000
H    -5.509000000     0.463000000    -3.865000000
H    -5.553000000    -0.435000000    -5.082000000
O     5.225000000    -1.491000000     4.934000000
H     5.633000000    -0.851000000     5.516000000
H     5.287000000    -2.320000000     5.408000000
O     2.406000000     0.164000000    -3.178000000
H     1.501000000    -0.114000000    -3.324000000
H     2.933000000    -0.594000000    -3.434000000
O     1.121000000     4.236000000    -1.617000000
H     0.553000000     4.668000000    -0.980000000
H     2.009000000     4.438000000    -1.324000000
O     6.828000000     2.368000000    -2.921000000
H     6.891000000     1.534000000    -2.456000000
H     7.734000000     2.670000000    -2.995000000
O    -3.552000000     3.394000000     1.499000000
H    -3.462000000     2.641000000     0.915000000
H    -4.128000000     3.995000000     1.027000000
O     3.455000000     5.522000000    -0.336000000
H     3.673000000     6.360000000    -0.744000000
H     3.919000000     5.535000000     0.501000000
O    -0.988000000    -2.021000000     4.097000000
H    -1.928000000    -2.167000000     3.992000000
H    -0.578000000    -2.726000000     3.597000000
O    -6.338000000     1.151000000    -0.154000000
H    -6.561000000     2.068000000    -0.311000000
H    -5.391000000     1.155000000    -0.014000000
O    -7.141000000     3.879000000    -0.362000000
H    -7.513000000     4.090000000    -1.219000000
H    -6.575000000     4.624000000    -0.158000000
O     4.360000000    -5.690000000    -0.799000000
H     4.695000000    -6.579000000    -0.914000000
H     4.326000000    -5.567000000     0.149000000
O     3.373000000    -3.878000000     2.056000000
H     2.498000000    -3.890000000     2.445000000
H     3.516000000    -2.963000000     1.817000000
O     0.424000000     1.617000000     2.538000000
H     0.351000000     1.060000000     1.763000000
H     1.161000000     2.197000000     2.348000000
O    -0.144000000     0.481000000     5.186000000
H     0.116000000     1.118000000     4.521000000
H    -0.531000000    -0.240000000     4.689000000
O    -3.908000000    -0.141000000     3.719000000
H    -4.039000000    -0.030000000     2.777000000
H    -4.019000000    -1.080000000     3.866000000
O     2.506000000     3.179000000    -3.660000000
H     1.968000000     3.373000000    -2.892000000
H     2.583000000     2.225000000    -3.664000000
O     1.194000000     5.474000000     2.071000000
H     0.834000000     5.828000000     1.257000000
H     1.856000000     6.112000000     2.337000000
O     3.335000000    -3.180000000    -1.722000000
H     3.634000000    -4.066000000    -1.518000000
H     2.462000000    -3.127000000    -1.332000000
O     4.554000000    -1.246000000     2.140000000
H     5.316000000    -1.549000000     2.634000000
H     4.655000000    -0.295000000     2.103000000
O    -1.329000000     6.134000000    -3.431000000
H    -1.482000000     5.291000000    -3.003000000
H    -1.551000000     5.980000000    -4.349000000
O    -4.681000000    -2.728000000     0.335000000
H    -5.607000000    -2.485000000     0.307000000
H    -4.223000000    -1.906000000     0.510000000
O    -8.495000000    -0.016000000     1.240000000
H    -8.296000000     0.086000000     2.171000000
H    -7.675000000     0.195000000     0.795000000
O    -1.838000000     2.788000000    -4.004000000
H    -1.188000000     2.155000000    -4.309000000
H    -1.420000000     3.221000000    -3.260000000
O    -0.458000000    -6.195000000     1.192000000
H     0.244000000    -6.764000000     0.874000000
H    -0.990000000    -6.017000000     0.417000000
O    -2.621000000     4.492000000    -1.584000000
H    -3.529000000     4.283000000    -1.364000000
H    -2.397000000     5.221000000    -1.005000000
O    -0.165000000     0.736000000    -4.925000000
H     0.728000000     0.513000000    -5.189000000
H    -0.445000000     0.000000000    -4.382000000
O     6.453000000    -3.957000000    -1.304000000
H     6.406000000    -4.786000000    -0.829000000
H     5.928000000    -3.351000000    -0.782000000
O    -5.504000000     3.982000000    -4.162000000
H    -4.919000000     3.461000000    -4.712000000
H    -5.880000000     3.352000000    -3.547000000
O     0.460000000    -3.806000000    -2.371000000
H     0.743000000    -4.557000000    -2.892000000
H    -0.279000000    -4.135000000    -1.858000000
O     3.909000000     2.161000000    -0.811000000
H     3.659000000     1.302000000    -1.151000000
H     4.358000000     2.587000000    -1.541000000
O     2.599000000     3.175000000     1.383000000
H     2.137000000     4.010000000     1.464000000
H     3.037000000     3.226000000     0.533000000
O    -2.508000000     6.331000000     0.221000000
H    -2.362000000     5.981000000     1.100000000
H    -2.722000000     7.253000000     0.363000000
