158
-3030.41132
C    -0.894000000     1.019000000    -0.629000000
H    -1.369000000     1.897000000    -1.059000000
C     0.475000000     1.095000000    -0.440000000
H     0.990000000     1.999000000    -0.756000000
C     1.193000000     0.048000000     0.020000000
H     2.310000000     0.039000000     0.074000000
C     0.577000000    -1.039000000     0.413000000
H     1.155000000    -1.822000000     0.897000000
C    -0.790000000    -1.195000000     0.426000000
H    -1.178000000    -2.172000000     0.702000000
C    -1.562000000    -0.105000000    -0.082000000
C    -3.040000000    -0.248000000    -0.240000000
O    -3.768000000     0.578000000    -0.838000000
O    -3.601000000    -1.117000000     0.456000000
O    -2.093000000     0.585000000    -4.637000000
H    -1.274000000     0.252000000    -4.271000000
H    -2.434000000     1.175000000    -3.964000000
O     4.546000000     3.937000000     3.288000000
H     4.381000000     3.528000000     2.439000000
H     4.120000000     4.792000000     3.229000000
O    -6.397000000     0.257000000     2.365000000
H    -6.438000000     1.109000000     2.800000000
H    -5.493000000    -0.031000000     2.486000000
O     0.503000000    -3.116000000    -2.479000000
H     0.664000000    -3.032000000    -1.539000000
H     1.159000000    -3.745000000    -2.779000000
O     4.464000000     1.415000000     4.607000000
H     4.738000000     2.095000000     3.992000000
H     3.571000000     1.195000000     4.339000000
O    -0.558000000    -4.819000000     4.465000000
H     0.239000000    -5.052000000     4.942000000
H    -1.021000000    -4.220000000     5.050000000
O    -3.576000000    -3.969000000     4.512000000
H    -3.225000000    -4.301000000     3.686000000
H    -4.477000000    -3.718000000     4.307000000
O    -7.360000000    -4.405000000    -0.070000000
H    -7.775000000    -4.225000000     0.774000000
H    -6.584000000    -3.845000000    -0.079000000
O    -2.038000000    -4.038000000    -3.484000000
H    -1.881000000    -4.893000000    -3.885000000
H    -1.170000000    -3.738000000    -3.213000000
O     4.056000000    -0.875000000    -1.899000000
H     4.879000000    -1.215000000    -1.548000000
H     3.378000000    -1.365000000    -1.435000000
O     2.665000000    -6.610000000     2.255000000
H     3.061000000    -5.742000000     2.181000000
H     2.271000000    -6.767000000     1.396000000
O     2.495000000    -1.866000000     4.988000000
H     2.344000000    -2.758000000     4.677000000
H     3.448000000    -1.775000000     5.002000000
O    -3.116000000    -4.453000000     1.655000000
H    -2.510000000    -4.796000000     0.998000000
H    -3.560000000    -3.727000000     1.216000000
O    -0.576000000     5.747000000    -0.259000000
H    -0.417000000     5.410000000     0.622000000
H    -1.468000000     6.092000000    -0.227000000
O    -4.854000000    -2.361000000    -3.485000000
H    -4.231000000    -1.972000000    -4.098000000
H    -5.138000000    -3.170000000    -3.912000000
O     2.619000000     1.035000000    -3.364000000
H     3.165000000     0.877000000    -4.134000000
H     2.965000000     0.439000000    -2.699000000
O     1.310000000     4.690000000    -2.111000000
H     0.584000000     4.959000000    -1.547000000
H     1.458000000     5.441000000    -2.685000000
O     6.160000000     0.283000000    -3.669000000
H     6.209000000     0.791000000    -4.478000000
H     6.700000000    -0.489000000    -3.837000000
O    -4.514000000     3.149000000     0.172000000
H    -4.512000000     2.212000000    -0.027000000
H    -5.109000000     3.529000000    -0.475000000
O     5.445000000     2.377000000    -1.993000000
H     5.715000000     1.581000000    -2.451000000
H     5.480000000     3.062000000    -2.660000000
O    -0.142000000    -0.944000000     4.256000000
H    -0.838000000    -1.379000000     4.747000000
H     0.478000000    -1.643000000     4.049000000
O    -6.062000000    -0.264000000    -1.874000000
H    -5.918000000    -1.004000000    -2.463000000
H    -5.213000000    -0.123000000    -1.454000000
O     3.887000000    -1.162000000    -4.685000000
H     4.394000000    -1.243000000    -5.494000000
H     4.511000000    -0.820000000    -4.045000000
O    -5.651000000     3.958000000    -2.346000000
H    -6.603000000     3.860000000    -2.361000000
H    -5.509000000     4.899000000    -2.241000000
O     3.068000000    -4.097000000     2.592000000
H     2.232000000    -4.248000000     2.151000000
H     3.403000000    -3.290000000     2.201000000
O    -0.880000000     1.325000000     3.130000000
H    -0.747000000     1.212000000     2.189000000
H    -0.474000000     0.553000000     3.524000000
O    -3.043000000    -5.919000000    -1.604000000
H    -3.084000000    -5.106000000    -2.108000000
H    -3.958000000    -6.134000000    -1.423000000
O     3.464000000     3.296000000    -0.401000000
H     4.087000000     2.765000000    -0.897000000
H     2.964000000     3.766000000    -1.068000000
O    -4.029000000    -0.844000000     3.067000000
H    -3.736000000    -0.948000000     2.161000000
H    -4.390000000    -1.698000000     3.301000000
O     0.820000000     2.901000000    -4.048000000
H     0.941000000     3.542000000    -3.347000000
H     1.422000000     2.190000000    -3.829000000
O    -0.847000000    -5.624000000     0.087000000
H    -0.015000000    -6.023000000    -0.165000000
H    -1.385000000    -5.671000000    -0.703000000
O     1.954000000     0.780000000     4.083000000
H     1.093000000     1.117000000     3.834000000
H     1.879000000    -0.168000000     3.977000000
O     3.010000000    -3.210000000    -0.614000000
H     3.452000000    -2.696000000     0.062000000
H     3.428000000    -4.070000000    -0.572000000
O    -3.701000000     4.593000000     2.926000000
H    -4.035000000     4.187000000     2.127000000
H    -3.348000000     3.864000000     3.436000000
O     4.091000000    -1.744000000     1.577000000
H     4.934000000    -1.563000000     1.994000000
H     3.723000000    -0.879000000     1.398000000
O    -5.029000000    -3.243000000    -0.662000000
H    -4.978000000    -3.162000000    -1.615000000
H    -4.650000000    -2.428000000    -0.332000000
O    -8.025000000     0.270000000    -0.125000000
H    -7.487000000     0.254000000     0.667000000
H    -7.418000000     0.046000000    -0.831000000
O    -0.431000000     5.255000000     2.434000000
H     0.014000000     4.604000000     2.978000000
H    -1.302000000     5.337000000     2.824000000
O    -0.063000000    -0.580000000    -3.165000000
H    -0.070000000    -1.494000000    -2.882000000
H     0.349000000    -0.109000000    -2.441000000
O     0.124000000    -4.050000000     1.963000000
H    -0.247000000    -4.706000000     1.372000000
H    -0.052000000    -4.391000000     2.840000000
O    -3.429000000     2.339000000    -2.784000000
H    -3.278000000     1.749000000    -2.046000000
H    -4.187000000     2.861000000    -2.523000000
O     1.304000000    -1.194000000    -5.607000000
H     1.984000000    -1.235000000    -4.935000000
H     0.535000000    -0.855000000    -5.149000000
O     6.564000000    -2.252000000    -1.041000000
H     6.445000000    -3.171000000    -0.800000000
H     6.975000000    -2.282000000    -1.905000000
O    -1.653000000     3.979000000    -4.338000000
H    -0.891000000     3.401000000    -4.301000000
H    -2.351000000     3.484000000    -3.909000000
O    -7.386000000     1.518000000    -3.484000000
H    -6.678000000     1.166000000    -2.946000000
H    -8.124000000     0.929000000    -3.324000000
O     6.833000000     2.771000000     0.337000000
H     7.756000000     2.595000000     0.516000000
H     6.700000000     2.468000000    -0.561000000
O     4.501000000     1.490000000     1.190000000
H     5.385000000     1.784000000     0.970000000
H     3.925000000     2.113000000     0.748000000
O    -6.012000000    -3.024000000     3.733000000
H    -6.402000000    -2.455000000     4.396000000
H    -6.279000000    -2.637000000     2.899000000
