158
-3037.87032
C    -0.953000000     0.844000000    -0.773000000
H    -1.570000000     1.512000000    -1.368000000
C     0.423000000     1.114000000    -0.646000000
H     0.758000000     1.939000000    -1.269000000
C     1.214000000     0.303000000     0.083000000
H     2.296000000     0.525000000     0.092000000
C     0.664000000    -0.824000000     0.744000000
H     1.161000000    -1.602000000     1.317000000
C    -0.673000000    -1.118000000     0.602000000
H    -1.029000000    -1.991000000     1.143000000
C    -1.512000000    -0.308000000    -0.122000000
C    -2.949000000    -0.594000000    -0.177000000
O    -3.681000000     0.351000000    -0.464000000
O    -3.447000000    -1.686000000     0.136000000
O    -5.380000000     0.972000000    -2.128000000
H    -4.828000000     1.387000000    -2.791000000
H    -4.773000000     0.728000000    -1.430000000
O     3.334000000    -0.480000000     4.831000000
H     3.156000000     0.402000000     4.506000000
H     2.759000000    -1.046000000     4.317000000
O    -4.484000000    -1.500000000    -4.169000000
H    -4.264000000    -2.209000000    -3.565000000
H    -4.938000000    -0.855000000    -3.625000000
O     0.254000000    -2.519000000    -2.027000000
H     0.148000000    -1.753000000    -1.463000000
H     1.004000000    -2.985000000    -1.659000000
O     6.021000000     0.277000000     4.206000000
H     5.668000000     0.577000000     5.044000000
H     5.273000000     0.297000000     3.610000000
O     1.524000000    -2.406000000     3.927000000
H     1.044000000    -3.113000000     4.358000000
H     2.304000000    -2.830000000     3.570000000
O    -0.598000000    -5.339000000     0.911000000
H     0.322000000    -5.129000000     1.071000000
H    -0.763000000    -5.030000000     0.021000000
O    -3.798000000    -5.512000000    -0.288000000
H    -3.374000000    -6.138000000     0.300000000
H    -3.178000000    -5.405000000    -1.010000000
O     6.866000000     2.955000000     1.418000000
H     6.923000000     2.028000000     1.649000000
H     7.312000000     3.019000000     0.573000000
O    -3.899000000    -2.046000000     2.705000000
H    -3.819000000    -2.047000000     1.752000000
H    -4.797000000    -2.334000000     2.870000000
O    -3.729000000    -3.109000000    -2.298000000
H    -2.977000000    -3.701000000    -2.310000000
H    -3.700000000    -2.702000000    -1.432000000
O    -1.449000000    -4.834000000    -1.931000000
H    -0.764000000    -4.177000000    -2.056000000
H    -1.092000000    -5.629000000    -2.326000000
O     2.986000000     3.475000000     0.302000000
H     3.462000000     3.224000000    -0.489000000
H     2.206000000     3.926000000    -0.020000000
O    -7.887000000     0.074000000    -2.972000000
H    -7.145000000     0.457000000    -2.504000000
H    -7.508000000    -0.272000000    -3.780000000
O     4.007000000    -1.263000000    -1.073000000
H     4.189000000    -2.135000000    -1.422000000
H     3.564000000    -0.806000000    -1.788000000
O     2.671000000    -0.145000000    -3.147000000
H     2.215000000    -0.592000000    -3.860000000
H     2.236000000     0.705000000    -3.080000000
O    -3.334000000     2.613000000     0.607000000
H    -3.237000000     1.807000000     0.099000000
H    -3.181000000     2.345000000     1.513000000
O     0.729000000     4.169000000    -4.924000000
H     0.912000000     4.112000000    -5.861000000
H     0.647000000     3.259000000    -4.640000000
O     4.983000000     3.329000000     4.174000000
H     5.354000000     3.916000000     3.516000000
H     4.678000000     2.571000000     3.675000000
O    -1.947000000    -3.763000000     4.165000000
H    -1.283000000    -4.255000000     3.682000000
H    -2.538000000    -3.431000000     3.489000000
O    -5.835000000     0.383000000     1.128000000
H    -5.630000000     0.233000000     2.051000000
H    -4.987000000     0.341000000     0.685000000
O    -7.600000000    -3.170000000    -2.217000000
H    -7.053000000    -3.174000000    -3.003000000
H    -6.993000000    -2.970000000    -1.504000000
O     0.419000000     1.556000000    -4.538000000
H    -0.512000000     1.361000000    -4.431000000
H     0.613000000     1.308000000    -5.442000000
O     0.603000000    -5.011000000     3.928000000
H     0.561000000    -5.966000000     3.870000000
H     0.975000000    -4.736000000     3.090000000
O    -1.296000000     0.053000000     3.878000000
H    -0.507000000     0.532000000     3.626000000
H    -1.376000000    -0.639000000     3.222000000
O    -1.918000000    -1.756000000     5.999000000
H    -1.629000000    -1.096000000     5.369000000
H    -1.879000000    -2.582000000     5.517000000
O    -6.279000000    -2.034000000     0.316000000
H    -5.390000000    -1.764000000     0.084000000
H    -6.746000000    -1.213000000     0.467000000
O     7.164000000     2.418000000    -3.604000000
H     6.494000000     1.919000000    -3.138000000
H     6.975000000     2.266000000    -4.530000000
O     6.058000000    -0.163000000    -3.005000000
H     5.715000000     0.056000000    -3.871000000
H     5.280000000    -0.273000000    -2.459000000
O    -2.102000000     0.152000000    -4.546000000
H    -2.736000000    -0.378000000    -5.029000000
H    -2.630000000     0.826000000    -4.119000000
O    -6.572000000    -2.864000000     3.470000000
H    -6.044000000    -3.605000000     3.170000000
H    -7.378000000    -2.921000000     2.956000000
O    -3.578000000     2.412000000    -3.622000000
H    -2.917000000     2.867000000    -3.100000000
H    -3.534000000     2.830000000    -4.482000000
O     3.989000000    -2.959000000     2.764000000
H     4.902000000    -2.930000000     3.051000000
H     3.889000000    -2.188000000     2.206000000
O     3.811000000     2.994000000    -2.424000000
H     3.741000000     2.811000000    -3.361000000
H     4.188000000     3.872000000    -2.378000000
O    -5.535000000    -4.555000000     1.611000000
H    -5.715000000    -3.660000000     1.321000000
H    -4.892000000    -4.885000000     0.983000000
O    -7.986000000     1.938000000     0.811000000
H    -7.933000000     2.425000000    -0.012000000
H    -7.237000000     1.344000000     0.786000000
O    -5.279000000     4.373000000    -0.686000000
H    -5.011000000     3.668000000    -0.097000000
H    -4.476000000     4.869000000    -0.847000000
O    -2.976000000     1.956000000     3.415000000
H    -2.594000000     2.572000000     4.040000000
H    -2.486000000     1.144000000     3.549000000
O     0.771000000     1.919000000     3.144000000
H     1.607000000     1.948000000     2.680000000
H     0.405000000     2.796000000     3.034000000
O    -1.373000000    -2.522000000    -4.207000000
H    -1.683000000    -1.617000000    -4.188000000
H    -0.810000000    -2.599000000    -3.437000000
O     2.114000000    -4.763000000     1.326000000
H     2.967000000    -4.629000000     1.739000000
H     2.276000000    -4.625000000     0.392000000
O    -1.445000000     3.989000000    -2.414000000
H    -1.329000000     4.050000000    -1.466000000
H    -0.555000000     4.021000000    -2.766000000
O    -1.676000000     4.840000000     0.125000000
H    -2.448000000     5.335000000    -0.149000000
H    -2.023000000     3.995000000     0.414000000
O     4.844000000     5.050000000     1.416000000
H     5.682000000     4.612000000     1.271000000
H     4.197000000     4.464000000     1.022000000
O     2.211000000    -4.274000000    -1.364000000
H     2.072000000    -5.108000000    -1.812000000
H     3.012000000    -3.923000000    -1.752000000
O     4.848000000    -0.473000000     1.331000000
H     5.800000000    -0.381000000     1.325000000
H     4.632000000    -0.787000000     0.452000000
O     3.450000000     1.793000000     2.617000000
H     3.619000000     1.323000000     1.801000000
H     3.219000000     2.680000000     2.339000000
O     0.929000000     5.310000000     0.773000000
H     0.715000000     5.181000000     1.697000000
H     0.089000000     5.239000000     0.320000000
