158
-3018.83510
C    -0.954000000     0.949000000    -0.581000000
H    -1.581000000     1.665000000    -1.107000000
C     0.396000000     1.059000000    -0.671000000
H     0.849000000     1.788000000    -1.338000000
C     1.216000000     0.004000000    -0.110000000
H     2.299000000     0.031000000    -0.207000000
C     0.676000000    -0.975000000     0.793000000
H     1.365000000    -1.635000000     1.314000000
C    -0.728000000    -0.980000000     0.947000000
H    -1.123000000    -1.727000000     1.631000000
C    -1.514000000    -0.050000000     0.234000000
C    -3.010000000    -0.063000000     0.430000000
O    -3.743000000     0.613000000    -0.303000000
O    -3.556000000    -0.777000000     1.244000000
O    -4.416000000     1.705000000    -2.743000000
H    -3.564000000     1.724000000    -3.179000000
H    -4.210000000     1.542000000    -1.822000000
O     2.202000000     1.534000000     4.905000000
H     1.846000000     1.859000000     4.078000000
H     3.124000000     1.357000000     4.716000000
O    -3.856000000    -1.132000000    -2.429000000
H    -4.103000000    -1.987000000    -2.075000000
H    -3.927000000    -0.535000000    -1.685000000
O     2.296000000     6.389000000    -0.130000000
H     2.035000000     6.357000000    -1.050000000
H     1.757000000     5.723000000     0.296000000
O     0.899000000    -3.602000000    -3.081000000
H     1.079000000    -2.665000000    -3.153000000
H     1.308000000    -3.862000000    -2.255000000
O     2.229000000    -2.476000000     5.514000000
H     1.511000000    -2.918000000     5.061000000
H     2.878000000    -2.311000000     4.829000000
O    -0.090000000    -6.662000000    -0.092000000
H    -0.490000000    -5.792000000    -0.069000000
H     0.399000000    -6.679000000    -0.915000000
O    -3.137000000    -1.285000000     3.905000000
H    -2.970000000    -0.953000000     3.023000000
H    -4.037000000    -1.020000000     4.095000000
O    -3.597000000    -3.576000000     1.279000000
H    -2.710000000    -3.794000000     0.994000000
H    -3.555000000    -2.646000000     1.503000000
O    -1.371000000    -3.883000000    -0.067000000
H    -0.988000000    -3.029000000    -0.268000000
H    -1.469000000    -4.309000000    -0.919000000
O    -6.438000000    -2.102000000     2.365000000
H    -6.356000000    -1.372000000     1.751000000
H    -7.348000000    -2.386000000     2.279000000
O    -5.864000000     4.018000000    -3.030000000
H    -5.142000000     4.609000000    -2.819000000
H    -5.454000000     3.157000000    -3.110000000
O     4.035000000     3.233000000    -4.205000000
H     4.904000000     3.220000000    -4.605000000
H     3.664000000     4.076000000    -4.465000000
O     3.323000000     2.980000000     0.693000000
H     2.791000000     3.629000000     0.231000000
H     2.713000000     2.556000000     1.296000000
O    -6.872000000     0.572000000    -4.253000000
H    -6.407000000     0.992000000    -3.529000000
H    -6.382000000    -0.234000000    -4.417000000
O    -8.768000000    -0.261000000     0.987000000
H    -7.825000000    -0.327000000     0.838000000
H    -9.136000000    -0.093000000     0.120000000
O     5.841000000    -2.709000000    -0.813000000
H     6.703000000    -3.118000000    -0.888000000
H     5.544000000    -2.608000000    -1.718000000
O     4.725000000    -2.418000000    -3.408000000
H     4.665000000    -1.858000000    -4.181000000
H     4.281000000    -3.227000000    -3.664000000
O     7.594000000     0.133000000    -2.882000000
H     6.722000000    -0.214000000    -2.697000000
H     7.513000000     1.076000000    -2.739000000
O    -3.202000000     3.023000000     1.020000000
H    -3.471000000     2.231000000     0.555000000
H    -2.964000000     2.717000000     1.895000000
O     1.063000000     2.632000000    -4.465000000
H     1.447000000     2.748000000    -5.334000000
H     1.789000000     2.787000000    -3.861000000
O    -1.102000000    -1.860000000     5.607000000
H    -0.687000000    -2.692000000     5.382000000
H    -1.882000000    -1.824000000     5.054000000
O    -5.450000000     0.581000000     2.961000000
H    -5.895000000    -0.265000000     3.021000000
H    -4.688000000     0.412000000     2.407000000
O     1.562000000    -1.069000000    -3.460000000
H     2.505000000    -0.923000000    -3.386000000
H     1.181000000    -0.192000000    -3.428000000
O    -0.171000000    -3.988000000     4.453000000
H     0.477000000    -4.653000000     4.218000000
H    -1.015000000    -4.408000000     4.289000000
O    -0.655000000     0.712000000     4.502000000
H     0.300000000     0.776000000     4.494000000
H    -0.832000000    -0.203000000     4.721000000
O    -6.035000000    -0.427000000     0.126000000
H    -5.079000000    -0.429000000     0.172000000
H    -6.232000000    -0.688000000    -0.774000000
O     6.583000000     2.544000000    -2.470000000
H     6.010000000     2.111000000    -1.837000000
H     6.128000000     3.358000000    -2.687000000
O     5.060000000     1.245000000    -0.584000000
H     4.574000000     1.029000000    -1.379000000
H     4.489000000     1.851000000    -0.112000000
O    -2.409000000    -0.424000000    -4.529000000
H    -2.863000000    -0.776000000    -3.763000000
H    -2.234000000     0.490000000    -4.304000000
O    -5.189000000    -3.138000000     4.702000000
H    -5.868000000    -3.812000000     4.743000000
H    -5.212000000    -2.829000000     3.796000000
O    -1.954000000     2.136000000    -4.084000000
H    -1.008000000     2.118000000    -4.224000000
H    -2.294000000     2.658000000    -4.810000000
O     5.074000000    -5.112000000     1.555000000
H     5.092000000    -4.228000000     1.188000000
H     5.441000000    -5.013000000     2.434000000
O     3.934000000    -2.650000000     3.183000000
H     4.444000000    -3.306000000     3.659000000
H     4.583000000    -2.169000000     2.670000000
O     4.363000000     0.661000000    -3.105000000
H     4.453000000    -0.004000000    -3.787000000
H     4.151000000     1.464000000    -3.580000000
O    -6.003000000     3.385000000     0.172000000
H    -5.109000000     3.405000000     0.513000000
H    -5.916000000     3.024000000    -0.710000000
O    -2.804000000    -4.691000000     4.429000000
H    -3.438000000    -3.977000000     4.490000000
H    -2.945000000    -5.063000000     3.558000000
O    -2.805000000     1.960000000     3.421000000
H    -3.012000000     2.448000000     4.218000000
H    -2.175000000     1.296000000     3.704000000
O     1.209000000     2.126000000     2.264000000
H     0.648000000     1.419000000     1.947000000
H     0.696000000     2.547000000     2.954000000
O    -5.111000000    -3.292000000    -1.275000000
H    -4.687000000    -3.314000000    -0.418000000
H    -4.911000000    -4.143000000    -1.664000000
O     2.041000000    -4.662000000     1.991000000
H     2.705000000    -4.011000000     2.220000000
H     1.953000000    -5.201000000     2.777000000
O    -0.388000000     4.901000000    -3.451000000
H     0.032000000     4.763000000    -2.602000000
H    -0.054000000     4.192000000    -4.001000000
O    -2.031000000     5.353000000     0.166000000
H    -2.678000000     5.491000000    -0.525000000
H    -2.337000000     4.573000000     0.629000000
O     5.621000000     3.425000000     2.182000000
H     6.150000000     3.954000000     1.584000000
H     4.905000000     3.095000000     1.640000000
O     2.536000000    -3.880000000    -0.980000000
H     2.244000000    -4.114000000    -0.099000000
H     3.472000000    -3.706000000    -0.884000000
O     5.227000000    -1.261000000     1.563000000
H     6.174000000    -1.222000000     1.700000000
H     5.128000000    -1.438000000     0.627000000
O     4.699000000     0.154000000     4.174000000
H     4.559000000    -0.388000000     3.398000000
H     5.276000000     0.857000000     3.875000000
O     0.711000000     4.553000000     0.805000000
H     0.711000000     3.843000000     1.448000000
H    -0.212000000     4.785000000     0.705000000
