158
-3048.66873
C    -0.877000000     1.217000000    -0.177000000
H    -1.307000000     2.215000000    -0.206000000
C     0.506000000     1.180000000    -0.430000000
H     1.066000000     2.029000000    -0.814000000
C     1.198000000    -0.032000000    -0.380000000
H     2.288000000     0.008000000    -0.662000000
C     0.525000000    -1.227000000     0.075000000
H     1.029000000    -2.155000000     0.332000000
C    -0.798000000    -1.119000000     0.420000000
H    -1.288000000    -2.030000000     0.757000000
C    -1.517000000     0.113000000     0.297000000
C    -3.000000000     0.194000000     0.700000000
O    -3.662000000     1.215000000     0.633000000
O    -3.478000000    -0.806000000     1.307000000
O    -3.844000000     3.837000000    -0.356000000
H    -3.468000000     3.823000000    -1.236000000
H    -3.626000000     2.982000000     0.013000000
O     3.037000000     5.798000000    -3.468000000
H     3.012000000     5.814000000    -4.425000000
H     2.405000000     5.121000000    -3.224000000
O     1.970000000    -5.061000000     0.267000000
H     2.109000000    -5.734000000     0.932000000
H     2.581000000    -4.362000000     0.502000000
O     3.378000000     0.872000000    -5.967000000
H     3.395000000     1.644000000    -5.402000000
H     4.283000000     0.561000000    -5.977000000
O     1.786000000    -1.145000000    -5.211000000
H     2.267000000    -0.463000000    -5.681000000
H     1.622000000    -1.820000000    -5.870000000
O    -0.732000000    -6.323000000     1.396000000
H    -0.731000000    -6.189000000     0.448000000
H    -0.975000000    -7.242000000     1.508000000
O    -3.734000000    -4.486000000     0.265000000
H    -4.642000000    -4.289000000     0.036000000
H    -3.283000000    -4.553000000    -0.577000000
O     3.829000000    -3.774000000    -5.118000000
H     3.554000000    -4.581000000    -5.552000000
H     3.300000000    -3.738000000    -4.321000000
O    -2.883000000    -3.024000000     2.466000000
H    -2.977000000    -2.153000000     2.080000000
H    -3.218000000    -3.621000000     1.797000000
O    -3.382000000    -2.518000000    -3.094000000
H    -3.037000000    -3.374000000    -2.841000000
H    -3.758000000    -2.163000000    -2.288000000
O    -4.749000000    -1.650000000    -0.917000000
H    -5.575000000    -2.055000000    -0.651000000
H    -4.331000000    -1.396000000    -0.094000000
O    -2.484000000    -4.970000000    -2.423000000
H    -2.849000000    -5.452000000    -3.165000000
H    -1.681000000    -5.443000000    -2.202000000
O     5.661000000    -1.969000000    -3.840000000
H     4.996000000    -1.281000000    -3.825000000
H     5.163000000    -2.780000000    -3.943000000
O     0.323000000     1.739000000     3.783000000
H    -0.549000000     1.535000000     4.123000000
H     0.442000000     2.669000000     3.974000000
O    -2.142000000     1.314000000     6.136000000
H    -2.585000000     1.902000000     6.747000000
H    -2.601000000     1.441000000     5.306000000
O     3.949000000     2.659000000    -3.788000000
H     3.792000000     2.967000000    -2.895000000
H     4.902000000     2.642000000    -3.872000000
O     5.593000000     2.035000000     2.337000000
H     4.847000000     2.573000000     2.603000000
H     5.428000000     1.182000000     2.738000000
O    -7.220000000     3.837000000    -1.250000000
H    -7.790000000     3.115000000    -0.983000000
H    -6.335000000     3.480000000    -1.185000000
O     0.296000000     6.462000000    -0.035000000
H     0.904000000     5.794000000    -0.352000000
H    -0.213000000     6.020000000     0.644000000
O     6.668000000    -1.759000000    -0.297000000
H     7.490000000    -2.079000000    -0.669000000
H     6.394000000    -1.059000000    -0.890000000
O     4.387000000    -3.276000000    -0.691000000
H     5.260000000    -2.899000000    -0.582000000
H     4.546000000    -4.210000000    -0.831000000
O    -5.876000000     3.384000000     2.550000000
H    -6.804000000     3.282000000     2.340000000
H    -5.449000000     2.651000000     2.106000000
O    -6.658000000    -0.404000000     4.581000000
H    -6.656000000    -0.567000000     3.638000000
H    -5.769000000    -0.619000000     4.863000000
O    -0.077000000    -0.422000000    -3.073000000
H     0.053000000    -0.578000000    -2.137000000
H     0.800000000    -0.488000000    -3.451000000
O    -3.755000000    -0.910000000     4.583000000
H    -3.781000000    -0.913000000     5.540000000
H    -3.823000000    -1.833000000     4.338000000
O    -6.023000000    -1.048000000     1.992000000
H    -6.404000000    -0.608000000     1.232000000
H    -5.099000000    -1.158000000     1.766000000
O    -7.084000000     0.137000000    -0.132000000
H    -7.891000000    -0.131000000    -0.573000000
H    -6.632000000     0.685000000    -0.774000000
O     0.558000000    -3.818000000    -3.654000000
H     0.135000000    -3.245000000    -4.293000000
H     1.199000000    -3.257000000    -3.216000000
O    -5.327000000     0.971000000    -1.851000000
H    -4.778000000     1.152000000    -1.088000000
H    -5.270000000     0.022000000    -1.968000000
O     3.737000000     3.349000000    -1.120000000
H     4.386000000     2.971000000    -0.526000000
H     3.712000000     4.277000000    -0.888000000
O     2.995000000     2.431000000     3.015000000
H     2.703000000     3.252000000     2.619000000
H     2.323000000     1.794000000     2.771000000
O     6.087000000     1.009000000    -1.036000000
H     6.873000000     0.964000000    -1.580000000
H     6.399000000     1.328000000    -0.190000000
O     0.120000000    -5.580000000    -1.529000000
H     0.566000000    -5.381000000    -0.706000000
H     0.336000000    -4.845000000    -2.103000000
O    -1.619000000     4.547000000    -2.673000000
H    -0.898000000     5.072000000    -2.325000000
H    -1.233000000     4.069000000    -3.407000000
O     2.594000000    -2.507000000    -2.601000000
H     3.173000000    -2.890000000    -1.942000000
H     2.928000000    -1.619000000    -2.727000000
O    -5.673000000    -4.110000000     4.713000000
H    -6.239000000    -4.505000000     4.049000000
H    -4.935000000    -3.754000000     4.217000000
O    -4.974000000     3.839000000     5.144000000
H    -4.898000000     4.781000000     5.298000000
H    -4.793000000     3.733000000     4.211000000
O    -0.648000000    -4.336000000     3.391000000
H    -0.663000000    -5.081000000     2.790000000
H    -1.385000000    -3.791000000     3.115000000
O    -3.050000000     1.533000000     3.391000000
H    -3.300000000     1.516000000     2.468000000
H    -3.465000000     0.756000000     3.766000000
O     0.726000000    -1.151000000     3.978000000
H    -0.053000000    -1.611000000     4.292000000
H     0.392000000    -0.327000000     3.626000000
O     4.299000000    -0.006000000    -2.674000000
H     4.894000000     0.191000000    -1.951000000
H     4.233000000     0.816000000    -3.161000000
O     3.826000000    -4.076000000     3.296000000
H     4.605000000    -3.980000000     3.844000000
H     3.510000000    -3.182000000     3.170000000
O    -0.286000000     2.696000000    -4.168000000
H     0.152000000     2.735000000    -5.019000000
H    -0.474000000     1.766000000    -4.038000000
O    -2.361000000     4.071000000     3.169000000
H    -2.776000000     4.354000000     2.354000000
H    -2.742000000     3.211000000     3.346000000
O     1.212000000     3.912000000     1.506000000
H     1.256000000     4.569000000     2.200000000
H     0.427000000     3.403000000     1.707000000
O     5.668000000    -0.953000000     2.497000000
H     4.753000000    -1.118000000     2.725000000
H     5.783000000    -1.375000000     1.646000000
O     2.940000000    -1.261000000     2.294000000
H     2.159000000    -1.295000000     2.846000000
H     2.622000000    -0.944000000     1.448000000
O     1.214000000     4.088000000    -2.433000000
H     0.729000000     3.639000000    -3.124000000
H     1.850000000     3.441000000    -2.127000000
