158
-3032.65953
C    -0.685000000     1.205000000    -0.526000000
H    -1.101000000     2.122000000    -0.935000000
C     0.690000000     1.085000000    -0.328000000
H     1.395000000     1.882000000    -0.547000000
C     1.212000000    -0.162000000     0.102000000
H     2.198000000    -0.311000000     0.143000000
C     0.336000000    -1.174000000     0.461000000
H     0.792000000    -2.087000000     0.836000000
C    -0.995000000    -1.006000000     0.286000000
H    -1.782000000    -1.745000000     0.418000000
C    -1.552000000     0.212000000    -0.160000000
C    -3.032000000     0.390000000    -0.236000000
O    -3.468000000     1.463000000    -0.558000000
O    -3.760000000    -0.423000000     0.279000000
O    -3.781000000     1.002000000    -3.439000000
H    -2.871000000     0.725000000    -3.551000000
H    -3.723000000     1.816000000    -2.939000000
O    -6.015000000     1.311000000     2.573000000
H    -5.240000000     0.822000000     2.850000000
H    -5.675000000     1.988000000     1.988000000
O     2.561000000    -3.293000000     4.430000000
H     1.875000000    -3.902000000     4.157000000
H     3.255000000    -3.853000000     4.776000000
O    -6.500000000    -1.913000000     3.434000000
H    -7.117000000    -1.181000000     3.441000000
H    -6.108000000    -1.888000000     2.561000000
O     0.619000000    -0.485000000    -3.022000000
H     0.335000000    -0.321000000    -2.123000000
H     1.544000000    -0.241000000    -3.030000000
O     4.507000000     1.760000000     4.440000000
H     4.946000000     2.610000000     4.442000000
H     4.703000000     1.391000000     3.578000000
O    -0.985000000    -2.715000000     4.878000000
H    -0.710000000    -3.498000000     5.355000000
H    -1.940000000    -2.772000000     4.854000000
O    -2.177000000    -5.865000000     3.038000000
H    -2.594000000    -5.007000000     3.115000000
H    -2.567000000    -6.385000000     3.740000000
O    -3.413000000    -3.476000000     3.551000000
H    -3.869000000    -3.185000000     2.762000000
H    -4.112000000    -3.662000000     4.177000000
O    -5.965000000    -3.254000000    -1.704000000
H    -6.517000000    -2.990000000    -0.968000000
H    -5.343000000    -3.876000000    -1.326000000
O    -2.651000000     1.293000000     5.042000000
H    -2.747000000     0.795000000     4.230000000
H    -1.810000000     1.009000000     5.400000000
O    -0.052000000    -2.914000000    -2.434000000
H     0.482000000    -2.189000000    -2.759000000
H    -0.884000000    -2.508000000    -2.193000000
O     7.676000000    -1.483000000     0.421000000
H     6.805000000    -1.679000000     0.766000000
H     7.957000000    -0.708000000     0.908000000
O     3.371000000    -0.243000000    -2.705000000
H     4.169000000     0.118000000    -2.318000000
H     3.298000000    -1.120000000    -2.330000000
O    -6.947000000     4.016000000     2.865000000
H    -6.887000000     3.214000000     3.384000000
H    -6.671000000     3.754000000     1.986000000
O     2.573000000    -0.924000000     5.732000000
H     2.725000000    -1.754000000     5.279000000
H     3.409000000    -0.462000000     5.673000000
O    -3.674000000    -5.060000000     0.488000000
H    -3.970000000    -5.416000000    -0.350000000
H    -2.952000000    -5.632000000     0.750000000
O    -3.769000000     2.681000000    -5.804000000
H    -3.806000000     1.845000000    -5.339000000
H    -3.838000000     3.342000000    -5.114000000
O     0.501000000     6.619000000    -0.181000000
H     0.281000000     6.641000000     0.750000000
H    -0.332000000     6.773000000    -0.628000000
O    -5.461000000    -1.070000000    -3.549000000
H    -4.867000000    -0.320000000    -3.569000000
H    -5.259000000    -1.513000000    -2.724000000
O     5.811000000    -1.341000000     4.305000000
H     6.620000000    -0.920000000     4.595000000
H     5.657000000    -2.033000000     4.949000000
O     3.218000000     2.110000000    -4.875000000
H     3.262000000     1.672000000    -4.025000000
H     4.066000000     1.932000000    -5.281000000
O     2.001000000     5.068000000    -2.052000000
H     1.927000000     5.141000000    -1.100000000
H     1.552000000     5.844000000    -2.388000000
O    -4.346000000     3.096000000     1.460000000
H    -3.838000000     2.524000000     0.885000000
H    -5.037000000     3.448000000     0.899000000
O     6.148000000     3.404000000    -2.137000000
H     6.010000000     4.219000000    -2.621000000
H     7.057000000     3.168000000    -2.321000000
O    -0.248000000    -0.194000000     5.668000000
H    -0.248000000    -1.029000000     5.202000000
H     0.671000000    -0.043000000     5.890000000
O    -6.258000000     0.479000000    -0.875000000
H    -5.795000000     1.189000000    -1.320000000
H    -5.569000000    -0.013000000    -0.428000000
O    -6.215000000     3.961000000     0.072000000
H    -6.947000000     3.744000000    -0.504000000
H    -5.970000000     4.852000000    -0.177000000
O     4.052000000    -4.153000000     1.238000000
H     3.195000000    -3.864000000     1.552000000
H     4.636000000    -3.418000000     1.428000000
O     1.485000000     1.988000000     2.932000000
H     0.803000000     1.836000000     2.278000000
H     1.258000000     1.403000000     3.655000000
O     4.774000000     4.187000000     0.130000000
H     5.078000000     3.649000000    -0.601000000
H     5.057000000     5.074000000    -0.091000000
O    -3.348000000    -0.533000000     3.038000000
H    -3.500000000    -0.567000000     2.094000000
H    -3.012000000    -1.402000000     3.258000000
O     0.898000000     3.489000000    -3.915000000
H     1.453000000     3.799000000    -3.199000000
H     1.486000000     2.974000000    -4.467000000
O    -1.243000000    -6.745000000    -0.077000000
H    -0.302000000    -6.603000000    -0.181000000
H    -1.620000000    -6.468000000    -0.912000000
O     3.542000000     4.402000000     2.837000000
H     2.748000000     3.871000000     2.782000000
H     3.990000000     4.250000000     2.005000000
O     3.454000000    -2.891000000    -1.458000000
H     3.925000000    -3.053000000    -0.641000000
H     2.890000000    -3.657000000    -1.565000000
O    -2.962000000     3.768000000     3.636000000
H    -3.305000000     3.569000000     2.765000000
H    -2.970000000     2.928000000     4.094000000
O     1.425000000    -6.916000000    -0.191000000
H     1.651000000    -6.136000000    -0.698000000
H     2.175000000    -7.050000000     0.388000000
O     5.167000000    -1.465000000     1.650000000
H     5.149000000    -1.647000000     2.590000000
H     4.849000000    -0.566000000     1.575000000
O    -5.048000000    -2.473000000     1.146000000
H    -4.517000000    -3.214000000     0.856000000
H    -4.773000000    -1.747000000     0.585000000
O    -7.976000000    -0.137000000     1.393000000
H    -7.317000000     0.191000000     2.005000000
H    -7.666000000     0.147000000     0.533000000
O    -1.066000000     1.351000000    -4.085000000
H    -0.484000000     0.597000000    -4.177000000
H    -0.485000000     2.075000000    -3.851000000
O    -0.180000000    -4.452000000     1.465000000
H    -0.230000000    -5.403000000     1.560000000
H    -0.602000000    -4.110000000     2.253000000
O    -3.273000000     3.882000000    -2.075000000
H    -3.273000000     3.235000000    -1.369000000
H    -3.772000000     4.620000000    -1.724000000
O    -1.294000000     5.126000000    -3.539000000
H    -0.609000000     4.459000000    -3.483000000
H    -2.055000000     4.725000000    -3.120000000
O     1.755000000    -5.088000000    -2.307000000
H     2.235000000    -4.933000000    -3.121000000
H     0.987000000    -4.520000000    -2.370000000
O     5.378000000     1.051000000    -0.928000000
H     6.135000000     0.488000000    -0.766000000
H     5.755000000     1.904000000    -1.144000000
O     3.874000000     0.932000000     1.421000000
H     4.266000000     1.288000000     0.624000000
H     2.934000000     1.075000000     1.311000000
