158
-3019.76512
C     0.372000000    -1.211000000     0.894000000
H     0.517000000    -2.176000000     1.372000000
C     0.615000000    -1.048000000    -0.495000000
H     1.040000000    -1.961000000    -0.903000000
C     0.286000000     0.101000000    -1.187000000
H     0.564000000     0.078000000    -2.263000000
C    -0.259000000     1.181000000    -0.522000000
H    -0.438000000     2.117000000    -1.046000000
C    -0.543000000     1.088000000     0.855000000
H    -0.993000000     1.881000000     1.448000000
C    -0.235000000    -0.129000000     1.502000000
C    -0.734000000    -0.321000000     2.933000000
O    -0.851000000     0.604000000     3.693000000
O    -0.947000000    -1.475000000     3.272000000
O     2.954000000    -5.092000000    -3.275000000
H     2.857000000    -4.496000000    -2.532000000
H     3.827000000    -4.904000000    -3.620000000
O     1.758000000     1.101000000     5.568000000
H     0.821000000     1.022000000     5.388000000
H     2.172000000     0.493000000     4.955000000
O     2.511000000    -1.079000000    -3.082000000
H     3.373000000    -1.477000000    -2.963000000
H     2.416000000    -0.484000000    -2.338000000
O     4.030000000     2.227000000     1.477000000
H     3.807000000     1.316000000     1.286000000
H     3.967000000     2.294000000     2.430000000
O    -2.235000000    -4.619000000     6.696000000
H    -2.454000000    -4.209000000     5.860000000
H    -1.771000000    -5.421000000     6.456000000
O    -3.646000000     1.791000000    -3.659000000
H    -3.879000000     2.192000000    -2.821000000
H    -4.171000000     0.991000000    -3.696000000
O    -1.285000000    -5.031000000    -2.995000000
H    -1.040000000    -4.185000000    -3.371000000
H    -0.613000000    -5.636000000    -3.310000000
O    -1.013000000     3.279000000    -3.930000000
H    -1.924000000     2.990000000    -3.990000000
H    -0.894000000     3.853000000    -4.688000000
O    -0.653000000     1.137000000    -7.204000000
H    -0.171000000     0.444000000    -7.656000000
H    -0.433000000     1.935000000    -7.686000000
O     3.334000000    -2.484000000     1.539000000
H     3.980000000    -3.165000000     1.728000000
H     3.061000000    -2.167000000     2.401000000
O    -4.353000000     2.715000000    -1.145000000
H    -4.419000000     2.220000000    -0.329000000
H    -3.799000000     3.464000000    -0.926000000
O    -1.417000000     0.539000000     8.108000000
H    -1.272000000    -0.101000000     7.411000000
H    -2.277000000     0.913000000     7.914000000
O    -1.278000000     0.003000000    -4.790000000
H    -1.965000000     0.527000000    -4.380000000
H    -1.146000000     0.409000000    -5.647000000
O    -2.143000000    -2.000000000    -6.825000000
H    -2.774000000    -1.512000000    -7.354000000
H    -1.304000000    -1.864000000    -7.267000000
O    -2.624000000     4.460000000     0.233000000
H    -1.886000000     4.791000000     0.744000000
H    -3.397000000     4.823000000     0.666000000
O     0.172000000     4.136000000     4.112000000
H    -0.187000000     4.656000000     3.393000000
H     0.313000000     3.268000000     3.734000000
O    -2.432000000    -6.615000000     2.939000000
H    -1.485000000    -6.687000000     2.817000000
H    -2.617000000    -5.682000000     2.834000000
O    -4.882000000    -4.125000000     3.493000000
H    -4.078000000    -3.723000000     3.821000000
H    -5.361000000    -3.404000000     3.083000000
O     1.311000000     6.460000000    -1.592000000
H     0.365000000     6.551000000    -1.706000000
H     1.506000000     5.576000000    -1.905000000
O     1.538000000     3.784000000     6.506000000
H     2.016000000     2.977000000     6.319000000
H     1.227000000     4.082000000     5.651000000
O     3.478000000    -4.004000000    -0.727000000
H     4.424000000    -3.877000000    -0.791000000
H     3.190000000    -3.346000000    -0.094000000
O     3.020000000     5.102000000    -4.223000000
H     2.383000000     4.918000000    -3.532000000
H     2.808000000     5.988000000    -4.515000000
O     1.848000000    -1.912000000     3.771000000
H     0.911000000    -1.735000000     3.688000000
H     1.934000000    -2.358000000     4.613000000
O    -2.808000000    -2.637000000     4.576000000
H    -2.219000000    -2.126000000     4.021000000
H    -2.775000000    -2.199000000     5.427000000
O     0.400000000    -5.748000000     2.587000000
H     0.987000000    -5.780000000     1.832000000
H     0.899000000    -6.155000000     3.296000000
O    -3.803000000    -4.877000000    -0.333000000
H    -4.189000000    -4.089000000    -0.716000000
H    -3.247000000    -4.552000000     0.375000000
O     1.287000000    -3.104000000     6.075000000
H     2.170000000    -3.414000000     6.275000000
H     0.708000000    -3.738000000     6.498000000
O    -3.659000000     3.736000000     5.829000000
H    -3.425000000     3.170000000     5.094000000
H    -3.202000000     3.357000000     6.580000000
O    -2.977000000     0.957000000     5.070000000
H    -2.140000000     0.775000000     4.642000000
H    -3.155000000     0.174000000     5.591000000
O    -1.769000000    -3.836000000     1.983000000
H    -0.957000000    -4.271000000     2.241000000
H    -1.691000000    -2.951000000     2.341000000
O     5.438000000    -1.582000000    -2.819000000
H     5.282000000    -2.511000000    -2.987000000
H     6.386000000    -1.516000000    -2.699000000
O    -3.145000000     3.269000000     2.802000000
H    -4.085000000     3.104000000     2.870000000
H    -2.739000000     2.421000000     2.980000000
O     2.002000000     0.371000000    -5.190000000
H     2.296000000    -0.032000000    -4.373000000
H     1.192000000     0.825000000    -4.955000000
O     1.192000000     3.930000000    -2.617000000
H     0.453000000     3.608000000    -3.134000000
H     1.762000000     3.167000000    -2.513000000
O    -0.685000000    -0.966000000     6.124000000
H    -0.166000000    -1.770000000     6.108000000
H    -0.662000000    -0.648000000     5.221000000
O    -4.807000000     0.865000000     0.925000000
H    -4.023000000     0.399000000     0.635000000
H    -5.442000000     0.726000000     0.223000000
O     0.052000000    -4.410000000    -0.777000000
H    -0.539000000    -4.280000000    -0.035000000
H    -0.511000000    -4.743000000    -1.476000000
O    -4.268000000    -0.712000000    -4.632000000
H    -3.725000000    -1.282000000    -4.088000000
H    -3.799000000    -0.658000000    -5.465000000
O    -1.310000000     6.721000000    -1.757000000
H    -1.799000000     6.399000000    -2.514000000
H    -1.678000000     6.243000000    -1.013000000
O    -2.419000000    -1.397000000    -0.521000000
H    -2.260000000    -2.315000000    -0.738000000
H    -1.568000000    -0.974000000    -0.633000000
O     2.094000000    -6.012000000     0.310000000
H     2.745000000    -5.338000000     0.115000000
H     1.284000000    -5.683000000    -0.081000000
O     3.004000000     1.849000000    -1.752000000
H     2.847000000     1.436000000    -0.902000000
H     3.953000000     1.964000000    -1.791000000
O     3.974000000     2.749000000    -4.907000000
H     3.315000000     2.057000000    -4.962000000
H     3.467000000     3.556000000    -4.819000000
O     1.284000000    -4.232000000    -6.012000000
H     1.333000000    -3.506000000    -6.634000000
H     1.235000000    -3.810000000    -5.154000000
O     4.480000000    -0.527000000    -6.438000000
H     4.540000000     0.413000000    -6.610000000
H     3.714000000    -0.617000000    -5.871000000
O     3.311000000    -0.112000000     0.052000000
H     2.402000000    -0.294000000    -0.187000000
H     3.644000000    -0.947000000     0.380000000
O    -0.932000000    -2.588000000    -4.521000000
H    -1.317000000    -2.597000000    -5.397000000
H    -0.745000000    -1.665000000    -4.351000000
O    -1.151000000     5.985000000     1.732000000
H    -1.744000000     6.604000000     2.158000000
H    -0.329000000     6.466000000     1.638000000
