158
-2992.39766
C    -1.197000000     0.860000000     0.524000000
H    -1.897000000     1.486000000     1.071000000
C     0.189000000     1.196000000     0.552000000
H     0.379000000     2.156000000     1.024000000
C     1.159000000     0.385000000     0.011000000
H     2.204000000     0.709000000    -0.096000000
C     0.824000000    -0.805000000    -0.549000000
H     1.566000000    -1.396000000    -1.080000000
C    -0.468000000    -1.196000000    -0.538000000
H    -0.709000000    -2.175000000    -0.943000000
C    -1.494000000    -0.396000000    -0.034000000
C    -2.880000000    -1.025000000     0.059000000
O    -3.786000000    -0.355000000     0.426000000
O    -3.098000000    -2.187000000    -0.267000000
O    -3.074000000    -4.665000000     4.648000000
H    -3.062000000    -4.058000000     3.907000000
H    -2.581000000    -4.215000000     5.334000000
O     8.256000000     0.081000000     0.257000000
H     8.451000000     0.602000000     1.035000000
H     7.607000000    -0.558000000     0.553000000
O     6.458000000    -1.662000000     1.388000000
H     6.083000000    -1.648000000     2.269000000
H     7.087000000    -2.383000000     1.407000000
O     5.818000000     2.697000000     0.122000000
H     5.657000000     2.063000000    -0.576000000
H     5.365000000     3.490000000    -0.166000000
O    -6.636000000    -5.270000000    -1.331000000
H    -6.230000000    -4.739000000    -0.646000000
H    -6.996000000    -4.632000000    -1.947000000
O    -0.507000000     4.072000000    -1.081000000
H    -0.139000000     4.956000000    -1.061000000
H    -0.029000000     3.597000000    -0.402000000
O    -2.494000000    -3.281000000    -2.789000000
H    -2.521000000    -3.038000000    -1.863000000
H    -2.044000000    -4.125000000    -2.803000000
O     4.403000000     1.467000000    -2.217000000
H     4.719000000     0.612000000    -1.926000000
H     5.149000000     1.855000000    -2.675000000
O    -8.008000000     1.440000000     3.409000000
H    -7.230000000     1.012000000     3.051000000
H    -8.662000000     1.368000000     2.713000000
O    -2.430000000    -3.796000000     1.962000000
H    -2.909000000    -3.258000000     1.331000000
H    -1.510000000    -3.582000000     1.809000000
O     5.790000000     2.320000000     3.261000000
H     6.723000000     2.534000000     3.272000000
H     5.669000000     1.819000000     2.455000000
O    -1.256000000     3.543000000     5.764000000
H    -1.837000000     4.116000000     6.265000000
H    -1.773000000     3.288000000     5.000000000
O    -4.315000000    -5.891000000     1.543000000
H    -4.868000000    -5.214000000     1.151000000
H    -3.692000000    -5.407000000     2.085000000
O    -7.005000000     0.237000000    -0.744000000
H    -6.118000000     0.597000000    -0.748000000
H    -7.370000000     0.507000000     0.098000000
O     1.190000000     5.864000000     1.371000000
H     1.197000000     6.594000000     0.751000000
H     2.085000000     5.826000000     1.706000000
O    -5.940000000     0.191000000     1.866000000
H    -6.362000000    -0.662000000     1.963000000
H    -5.040000000    -0.014000000     1.614000000
O     4.083000000     5.785000000     2.243000000
H     4.650000000     6.304000000     1.672000000
H     4.651000000     5.520000000     2.966000000
O     1.981000000     2.719000000    -2.958000000
H     2.477000000     2.038000000    -2.503000000
H     2.524000000     3.504000000    -2.878000000
O    -5.185000000    -1.972000000    -2.388000000
H    -4.579000000    -2.307000000    -3.048000000
H    -4.650000000    -1.872000000    -1.600000000
O    -0.414000000    -6.191000000     0.420000000
H     0.513000000    -6.416000000     0.499000000
H    -0.517000000    -5.408000000     0.962000000
O    -4.415000000     2.049000000    -0.121000000
H    -4.248000000     1.172000000     0.225000000
H    -4.217000000     2.635000000     0.610000000
O     1.228000000     0.090000000     3.478000000
H     1.239000000     0.301000000     2.545000000
H     2.117000000     0.280000000     3.777000000
O     3.040000000    -2.599000000    -2.537000000
H     3.952000000    -2.310000000    -2.534000000
H     2.755000000    -2.481000000    -3.444000000
O    -5.601000000     3.049000000     2.537000000
H    -6.338000000     3.611000000     2.300000000
H    -5.839000000     2.186000000     2.198000000
O     2.884000000     5.505000000    -2.754000000
H     1.974000000     5.664000000    -3.002000000
H     3.380000000     6.180000000    -3.218000000
O    -0.289000000     0.916000000    -2.810000000
H     0.384000000     1.593000000    -2.738000000
H    -0.408000000     0.600000000    -1.914000000
O     4.506000000     4.742000000    -0.638000000
H     4.008000000     4.847000000    -1.448000000
H     4.806000000     5.626000000    -0.424000000
O     1.535000000    -2.580000000     4.188000000
H     2.217000000    -2.527000000     3.518000000
H     1.011000000    -1.789000000     4.059000000
O     3.858000000    -5.757000000    -2.609000000
H     4.505000000    -6.341000000    -2.214000000
H     4.049000000    -4.898000000    -2.231000000
O     3.439000000    -3.097000000     2.247000000
H     3.559000000    -4.013000000     2.496000000
H     4.328000000    -2.745000000     2.195000000
O    -4.491000000     1.295000000     5.451000000
H    -4.251000000     2.050000000     5.987000000
H    -3.656000000     0.874000000     5.244000000
O     0.110000000    -2.893000000    -4.200000000
H    -0.390000000    -3.121000000    -3.417000000
H    -0.281000000    -2.073000000    -4.504000000
O     2.369000000     1.414000000    -5.412000000
H     2.276000000     2.124000000    -6.049000000
H     2.357000000     1.853000000    -4.562000000
O    -5.407000000    -3.503000000     0.158000000
H    -5.955000000    -2.836000000     0.573000000
H    -4.528000000    -3.125000000     0.159000000
O    -7.122000000    -2.190000000     2.158000000
H    -6.993000000    -2.793000000     2.891000000
H    -8.065000000    -2.029000000     2.144000000
O    -3.379000000     3.297000000     3.780000000
H    -2.848000000     3.757000000     3.129000000
H    -4.255000000     3.267000000     3.397000000
O     3.883000000     0.650000000     4.602000000
H     4.320000000     1.187000000     3.941000000
H     3.839000000     1.211000000     5.376000000
O    -0.889000000    -5.399000000    -2.370000000
H    -0.060000000    -5.786000000    -2.651000000
H    -0.974000000    -5.655000000    -1.452000000
O     5.807000000    -1.629000000     4.009000000
H     6.496000000    -1.783000000     4.656000000
H     5.163000000    -1.090000000     4.469000000
O     4.589000000    -0.062000000    -5.605000000
H     5.080000000     0.622000000    -6.060000000
H     3.758000000     0.353000000    -5.375000000
O     0.416000000    -3.447000000     1.671000000
H     1.094000000    -4.106000000     1.824000000
H     0.895000000    -2.677000000     1.364000000
O    -0.300000000    -0.318000000    -5.067000000
H     0.649000000    -0.350000000    -5.190000000
H    -0.416000000     0.105000000    -4.215000000
O    -1.482000000     5.248000000     2.330000000
H    -2.067000000     5.572000000     1.645000000
H    -0.607000000     5.305000000     1.946000000
O     3.045000000    -4.166000000    -0.386000000
H     3.136000000    -3.662000000     0.423000000
H     2.760000000    -3.525000000    -1.037000000
O    -6.283000000     0.358000000    -3.355000000
H    -5.714000000    -0.392000000    -3.187000000
H    -6.821000000     0.433000000    -2.567000000
O    -3.092000000     3.807000000    -1.850000000
H    -2.184000000     3.979000000    -1.601000000
H    -3.405000000     3.182000000    -1.195000000
O    -7.775000000    -2.163000000    -2.213000000
H    -7.794000000    -1.407000000    -1.627000000
H    -6.844000000    -2.333000000    -2.355000000
O     5.278000000    -0.859000000    -1.420000000
H     6.138000000    -1.121000000    -1.749000000
H     5.374000000    -0.867000000    -0.468000000
