158
-3022.90259
C    -1.250000000     0.725000000    -0.200000000
H    -2.247000000     1.112000000    -0.397000000
C    -1.129000000    -0.592000000     0.233000000
H    -1.993000000    -1.246000000     0.316000000
C     0.125000000    -1.188000000     0.409000000
H     0.184000000    -2.170000000     0.913000000
C     1.227000000    -0.335000000     0.244000000
H     2.178000000    -0.813000000     0.464000000
C     1.103000000     1.023000000    -0.011000000
H     1.961000000     1.689000000    -0.037000000
C    -0.130000000     1.534000000    -0.363000000
C    -0.312000000     2.883000000    -1.078000000
O    -1.398000000     3.202000000    -1.592000000
O     0.659000000     3.517000000    -1.358000000
O     1.745000000     1.688000000    -3.611000000
H     2.256000000     2.212000000    -4.228000000
H     1.480000000     2.308000000    -2.932000000
O    -0.615000000    -5.455000000     2.738000000
H    -1.526000000    -5.595000000     2.479000000
H    -0.645000000    -4.697000000     3.322000000
O     0.107000000    -1.278000000    -2.631000000
H     0.839000000    -0.764000000    -2.291000000
H     0.144000000    -2.100000000    -2.141000000
O     3.900000000     4.890000000     1.177000000
H     3.834000000     5.367000000     0.350000000
H     4.827000000     4.938000000     1.408000000
O     1.335000000     5.893000000    -0.279000000
H     0.884000000     5.158000000    -0.695000000
H     0.953000000     5.945000000     0.597000000
O     2.391000000     5.036000000    -2.880000000
H     1.974000000     4.729000000    -2.075000000
H     2.942000000     5.767000000    -2.601000000
O    -2.539000000    -0.529000000    -2.806000000
H    -2.925000000    -1.274000000    -3.268000000
H    -1.729000000    -0.874000000    -2.431000000
O    -4.572000000    -5.816000000    -0.199000000
H    -3.934000000    -5.574000000    -0.870000000
H    -5.028000000    -6.574000000    -0.565000000
O     2.110000000    -3.577000000     2.126000000
H     2.591000000    -3.900000000     1.363000000
H     1.427000000    -4.231000000     2.271000000
O    -1.513000000    -2.654000000     3.711000000
H    -1.531000000    -2.076000000     2.948000000
H    -2.354000000    -2.507000000     4.143000000
O    -5.645000000    -3.143000000     0.347000000
H    -5.186000000    -3.921000000     0.029000000
H    -5.966000000    -2.713000000    -0.445000000
O     3.511000000    -2.923000000     5.058000000
H     3.207000000    -2.204000000     4.503000000
H     2.938000000    -3.656000000     4.834000000
O     0.259000000    -6.422000000     0.317000000
H     0.293000000    -7.374000000     0.408000000
H     0.097000000    -6.103000000     1.205000000
O    -1.931000000     5.364000000     0.314000000
H    -2.830000000     5.072000000     0.162000000
H    -1.416000000     4.911000000    -0.354000000
O    -4.359000000     6.465000000    -3.589000000
H    -4.737000000     7.338000000    -3.482000000
H    -4.852000000     5.915000000    -2.980000000
O     0.290000000     5.779000000    -4.474000000
H    -0.403000000     5.141000000    -4.306000000
H     0.941000000     5.610000000    -3.792000000
O    -2.047000000     4.037000000     3.585000000
H    -2.305000000     3.115000000     3.577000000
H    -1.716000000     4.201000000     2.702000000
O     3.824000000     0.041000000    -4.275000000
H     2.995000000     0.439000000    -4.011000000
H     4.331000000     0.765000000    -4.643000000
O    -4.295000000    -0.853000000     1.937000000
H    -5.108000000    -0.356000000     1.853000000
H    -4.335000000    -1.499000000     1.231000000
O    -3.731000000     2.241000000    -2.358000000
H    -3.780000000     1.287000000    -2.419000000
H    -2.818000000     2.420000000    -2.133000000
O     0.989000000     2.687000000     5.355000000
H     1.775000000     3.191000000     5.567000000
H     0.919000000     2.743000000     4.402000000
O     6.213000000    -4.664000000     0.316000000
H     6.038000000    -5.069000000     1.166000000
H     5.424000000    -4.156000000     0.126000000
O     4.772000000     2.131000000     1.342000000
H     4.652000000     1.792000000     2.230000000
H     4.544000000     3.058000000     1.407000000
O    -1.756000000     7.914000000    -3.384000000
H    -0.957000000     7.778000000    -3.892000000
H    -2.272000000     7.121000000    -3.531000000
O    -3.599000000     2.200000000    -5.279000000
H    -3.125000000     2.685000000    -4.603000000
H    -4.289000000     1.738000000    -4.802000000
O    -0.946000000     3.105000000    -6.466000000
H    -1.567000000     3.568000000    -5.904000000
H    -0.824000000     2.257000000    -6.040000000
O     1.750000000    -5.183000000     5.256000000
H     1.897000000    -5.903000000     4.642000000
H     2.569000000    -5.116000000     5.747000000
O     1.492000000     0.005000000     5.450000000
H     1.272000000    -0.675000000     6.086000000
H     0.900000000     0.728000000     5.659000000
O     2.881000000    -5.402000000    -0.121000000
H     1.948000000    -5.444000000    -0.327000000
H     3.313000000    -5.343000000    -0.973000000
O    -0.317000000     1.962000000     2.660000000
H    -1.255000000     1.889000000     2.837000000
H    -0.109000000     1.182000000     2.146000000
O     0.658000000     8.474000000    -1.418000000
H     0.672000000     7.555000000    -1.151000000
H     0.714000000     8.447000000    -2.373000000
O     2.849000000    -1.130000000     3.093000000
H     2.068000000    -0.807000000     3.542000000
H     2.556000000    -1.922000000     2.642000000
O     6.625000000     1.369000000    -0.568000000
H     6.186000000     0.591000000    -0.911000000
H     6.039000000     1.693000000     0.116000000
O     2.263000000     3.826000000     3.178000000
H     2.854000000     4.229000000     2.542000000
H     1.697000000     3.260000000     2.654000000
O    -6.429000000     2.371000000    -0.950000000
H    -6.714000000     3.284000000    -0.934000000
H    -5.551000000     2.401000000    -1.331000000
O    -0.753000000     1.008000000    -4.768000000
H     0.050000000     1.100000000    -4.254000000
H    -1.417000000     0.748000000    -4.130000000
O    -2.818000000     1.387000000     3.408000000
H    -3.286000000     0.713000000     2.915000000
H    -2.489000000     0.932000000     4.183000000
O    -2.054000000     4.334000000    -3.961000000
H    -2.572000000     5.091000000    -3.686000000
H    -1.890000000     3.849000000    -3.153000000
O    -2.120000000    -6.660000000    -1.513000000
H    -2.220000000    -7.450000000    -2.045000000
H    -1.173000000    -6.551000000    -1.423000000
O     4.585000000    -2.448000000     0.984000000
H     5.351000000    -2.078000000     1.423000000
H     3.932000000    -2.538000000     1.677000000
O    -4.090000000    -2.028000000     4.480000000
H    -4.199000000    -1.690000000     3.592000000
H    -4.630000000    -1.454000000     5.023000000
O    -0.051000000    -4.198000000    -1.545000000
H    -0.220000000    -4.758000000    -2.303000000
H     0.005000000    -4.805000000    -0.807000000
O    -5.576000000     4.162000000    -3.097000000
H    -4.816000000     3.606000000    -2.929000000
H    -6.115000000     3.653000000    -3.703000000
O    -1.514000000     8.087000000     1.065000000
H    -1.733000000     7.213000000     0.742000000
H    -1.250000000     7.946000000     1.974000000
O     1.157000000    -2.246000000    -5.113000000
H     0.904000000    -1.799000000    -4.305000000
H     0.405000000    -2.798000000    -5.327000000
O    -3.453000000    -5.755000000     2.375000000
H    -4.195000000    -5.319000000     2.795000000
H    -3.761000000    -5.951000000     1.490000000
O     5.579000000    -1.187000000    -1.366000000
H     5.081000000    -1.357000000    -0.566000000
H     5.190000000    -1.769000000    -2.019000000
O    -0.175000000    -3.014000000     6.015000000
H    -0.781000000    -2.912000000     5.281000000
H     0.318000000    -3.809000000     5.810000000
