158
-3020.81228
C     0.097000000    -1.240000000     0.797000000
H     0.398000000    -2.179000000     1.254000000
C     0.319000000    -1.146000000    -0.570000000
H     0.658000000    -2.013000000    -1.130000000
C     0.224000000     0.093000000    -1.184000000
H     0.314000000     0.069000000    -2.278000000
C    -0.151000000     1.244000000    -0.466000000
H    -0.350000000     2.137000000    -1.053000000
C    -0.452000000     1.126000000     0.881000000
H    -0.810000000     1.979000000     1.451000000
C    -0.340000000    -0.105000000     1.519000000
C    -0.498000000    -0.189000000     2.958000000
O    -0.971000000     0.711000000     3.647000000
O    -0.397000000    -1.283000000     3.500000000
O     2.872000000    -4.803000000    -1.033000000
H     2.402000000    -4.463000000    -0.272000000
H     3.557000000    -4.155000000    -1.200000000
O     1.411000000     3.752000000     6.657000000
H     0.854000000     4.108000000     5.965000000
H     1.405000000     2.807000000     6.507000000
O     3.363000000    -0.050000000     6.145000000
H     3.727000000     0.404000000     6.904000000
H     2.653000000    -0.584000000     6.503000000
O     2.692000000    -0.177000000    -3.798000000
H     3.187000000    -0.552000000    -3.069000000
H     2.417000000    -0.933000000    -4.315000000
O    -3.480000000     2.902000000     6.855000000
H    -4.372000000     3.149000000     6.612000000
H    -2.955000000     3.116000000     6.084000000
O    -2.150000000    -4.735000000     6.187000000
H    -2.069000000    -3.961000000     6.743000000
H    -2.519000000    -4.404000000     5.368000000
O    -4.171000000     1.295000000    -1.878000000
H    -4.477000000     1.937000000    -1.237000000
H    -4.819000000     1.330000000    -2.581000000
O    -1.323000000    -3.798000000    -4.256000000
H    -0.954000000    -3.173000000    -4.880000000
H    -1.056000000    -4.655000000    -4.589000000
O     0.961000000    -6.298000000    -2.869000000
H     0.321000000    -6.609000000    -2.228000000
H     1.508000000    -5.683000000    -2.381000000
O    -0.809000000     0.538000000    -5.515000000
H    -0.670000000     1.174000000    -4.812000000
H    -1.299000000     1.021000000    -6.180000000
O     2.937000000     0.810000000     0.858000000
H     3.366000000     1.584000000     1.222000000
H     2.069000000     1.118000000     0.599000000
O    -4.501000000     3.718000000    -0.257000000
H    -4.791000000     3.205000000     0.498000000
H    -3.702000000     4.153000000     0.041000000
O    -0.259000000     0.081000000     8.435000000
H     0.144000000    -0.420000000     7.725000000
H    -0.321000000    -0.541000000     9.161000000
O     2.162000000    -3.012000000    -4.518000000
H     2.306000000    -3.936000000    -4.721000000
H     1.616000000    -2.691000000    -5.236000000
O     3.270000000     5.341000000     0.130000000
H     2.572000000     5.985000000     0.011000000
H     3.131000000     4.705000000    -0.572000000
O     1.513000000     1.395000000     4.467000000
H     1.926000000     0.536000000     4.548000000
H     0.601000000     1.204000000     4.246000000
O     4.178000000    -4.934000000     3.652000000
H     4.558000000    -4.530000000     4.432000000
H     3.888000000    -4.196000000     3.116000000
O    -2.910000000     5.659000000     0.710000000
H    -2.452000000     6.197000000     1.355000000
H    -3.837000000     5.765000000     0.924000000
O    -3.835000000    -2.977000000    -3.600000000
H    -3.009000000    -3.298000000    -3.961000000
H    -3.575000000    -2.337000000    -2.938000000
O    -0.178000000     4.720000000     4.722000000
H    -0.452000000     5.428000000     4.139000000
H    -0.756000000     3.990000000     4.499000000
O     2.739000000     4.984000000    -3.113000000
H     2.134000000     4.255000000    -3.249000000
H     3.187000000     5.084000000    -3.953000000
O    -3.659000000    -0.203000000     2.847000000
H    -3.975000000     0.244000000     3.632000000
H    -2.710000000    -0.247000000     2.962000000
O     4.957000000    -2.901000000    -4.474000000
H     4.079000000    -2.871000000    -4.096000000
H     4.831000000    -3.283000000    -5.343000000
O     3.276000000    -2.090000000     1.456000000
H     2.820000000    -2.262000000     2.281000000
H     3.092000000    -1.169000000     1.269000000
O     1.410000000    -3.321000000     3.421000000
H     0.815000000    -2.578000000     3.325000000
H     1.100000000    -3.777000000     4.204000000
O    -2.695000000    -2.687000000     4.351000000
H    -1.880000000    -2.540000000     3.871000000
H    -2.800000000    -1.903000000     4.890000000
O     2.408000000    -6.159000000     2.049000000
H     1.750000000    -5.525000000     1.763000000
H     2.940000000    -5.682000000     2.686000000
O     1.498000000    -3.369000000     6.902000000
H     2.373000000    -3.717000000     6.729000000
H     1.176000000    -3.888000000     7.639000000
O    -2.419000000    -0.220000000     5.847000000
H    -1.757000000     0.108000000     5.238000000
H    -2.681000000     0.550000000     6.353000000
O    -1.916000000    -5.714000000     1.721000000
H    -2.692000000    -5.849000000     1.178000000
H    -2.024000000    -6.325000000     2.450000000
O     3.806000000    -0.581000000    -1.276000000
H     4.445000000     0.102000000    -1.480000000
H     3.322000000    -0.240000000    -0.525000000
O    -2.622000000     2.802000000     4.095000000
H    -3.170000000     3.153000000     3.393000000
H    -2.270000000     1.986000000     3.738000000
O     4.204000000     1.157000000    -5.687000000
H     3.636000000     0.567000000    -5.192000000
H     3.605000000     1.652000000    -6.247000000
O    -0.213000000     3.250000000    -5.125000000
H    -0.632000000     3.964000000    -5.606000000
H    -0.669000000     3.227000000    -4.284000000
O     0.774000000    -1.181000000     6.039000000
H     1.192000000    -2.035000000     6.149000000
H     0.301000000    -1.251000000     5.209000000
O    -1.973000000     3.061000000    -2.898000000
H    -2.696000000     3.673000000    -3.040000000
H    -2.390000000     2.275000000    -2.546000000
O    -5.009000000     1.942000000     1.992000000
H    -4.573000000     1.102000000     1.851000000
H    -5.804000000     1.721000000     2.476000000
O    -1.353000000    -4.402000000    -1.413000000
H    -2.126000000    -3.851000000    -1.289000000
H    -1.146000000    -4.320000000    -2.344000000
O     1.646000000     2.706000000    -7.330000000
H     1.628000000     3.661000000    -7.393000000
H     1.184000000     2.510000000    -6.515000000
O    -3.840000000    -0.895000000    -6.068000000
H    -4.578000000    -0.425000000    -5.679000000
H    -3.067000000    -0.501000000    -5.665000000
O    -2.816000000    -1.552000000    -1.790000000
H    -3.107000000    -0.664000000    -1.585000000
H    -1.864000000    -1.519000000    -1.699000000
O     4.863000000    -3.056000000    -1.633000000
H     4.465000000    -2.229000000    -1.364000000
H     4.981000000    -2.969000000    -2.579000000
O     0.490000000    -4.821000000     0.705000000
H    -0.123000000    -5.006000000     1.417000000
H    -0.061000000    -4.751000000    -0.074000000
O     2.238000000     2.007000000    -2.016000000
H     2.446000000     1.365000000    -2.695000000
H     1.580000000     1.575000000    -1.472000000
O     5.283000000     1.624000000    -1.118000000
H     4.902000000     1.886000000    -0.280000000
H     6.117000000     1.214000000    -0.885000000
O    -2.043000000    -2.431000000     8.003000000
H    -2.796000000    -2.334000000     8.586000000
H    -2.072000000    -1.655000000     7.443000000
O     0.233000000    -1.907000000    -5.736000000
H     0.196000000    -2.007000000    -6.687000000
H    -0.023000000    -0.999000000    -5.580000000
O    -0.625000000     6.328000000     2.515000000
H    -0.495000000     7.168000000     2.955000000
H     0.105000000     6.265000000     1.900000000
