158
-3015.28142
C    -0.959000000     0.559000000    -0.976000000
H    -1.589000000     0.944000000    -1.773000000
C    -0.799000000    -0.777000000    -0.631000000
H    -1.305000000    -1.507000000    -1.258000000
C     0.078000000    -1.158000000     0.351000000
H     0.263000000    -2.264000000     0.531000000
C     0.824000000    -0.196000000     1.005000000
H     1.595000000    -0.340000000     1.758000000
C     0.706000000     1.126000000     0.678000000
H     1.462000000     1.820000000     1.038000000
C    -0.190000000     1.468000000    -0.325000000
C    -0.250000000     2.889000000    -0.786000000
O    -0.969000000     3.148000000    -1.754000000
O     0.594000000     3.732000000    -0.511000000
O     1.501000000    -0.107000000    -3.134000000
H     2.078000000    -0.857000000    -2.993000000
H     1.413000000     0.294000000    -2.269000000
O    -4.968000000     3.363000000    -2.934000000
H    -5.671000000     3.797000000    -2.451000000
H    -4.334000000     3.113000000    -2.261000000
O     1.516000000    -4.665000000     2.348000000
H     0.572000000    -4.510000000     2.324000000
H     1.814000000    -4.465000000     1.461000000
O     1.091000000    -7.831000000     2.505000000
H     1.127000000    -7.351000000     1.677000000
H     1.986000000    -8.138000000     2.643000000
O    -3.963000000    -3.056000000    -0.882000000
H    -3.665000000    -3.965000000    -0.859000000
H    -3.603000000    -2.665000000    -0.086000000
O    -0.773000000    -2.292000000    -5.326000000
H    -0.537000000    -2.846000000    -6.070000000
H    -1.447000000    -2.789000000    -4.862000000
O     3.118000000     4.714000000     0.331000000
H     2.295000000     4.383000000    -0.029000000
H     2.851000000     5.375000000     0.970000000
O     1.359000000     5.097000000    -2.638000000
H     1.291000000     4.538000000    -1.864000000
H     0.649000000     4.803000000    -3.209000000
O    -4.278000000    -1.459000000    -3.422000000
H    -4.361000000    -1.828000000    -2.543000000
H    -5.031000000    -0.874000000    -3.508000000
O     1.939000000    -1.558000000     4.162000000
H     1.635000000    -2.285000000     4.705000000
H     1.146000000    -1.057000000     3.968000000
O     1.979000000     8.160000000    -0.226000000
H     2.380000000     7.719000000    -0.975000000
H     1.389000000     7.506000000     0.148000000
O    -5.577000000    -1.688000000     2.315000000
H    -5.925000000    -0.825000000     2.541000000
H    -4.826000000    -1.503000000     1.751000000
O    -2.185000000    -0.150000000    -4.953000000
H    -1.421000000    -0.701000000    -5.124000000
H    -2.806000000    -0.732000000    -4.516000000
O     0.367000000     6.143000000     0.426000000
H     0.441000000     5.273000000     0.032000000
H    -0.026000000     5.985000000     1.284000000
O    -1.560000000     5.816000000    -1.566000000
H    -1.485000000     4.875000000    -1.723000000
H    -0.814000000     6.025000000    -1.003000000
O    -3.370000000     3.515000000    -0.842000000
H    -3.302000000     3.889000000     0.036000000
H    -2.464000000     3.447000000    -1.144000000
O     4.956000000    -1.727000000     4.273000000
H     4.850000000    -1.544000000     5.206000000
H     4.067000000    -1.893000000     3.958000000
O     0.349000000    -3.826000000    -2.139000000
H    -0.243000000    -4.226000000    -2.776000000
H     0.441000000    -2.920000000    -2.435000000
O     1.888000000     1.786000000     4.180000000
H     1.217000000     1.108000000     4.106000000
H     1.418000000     2.606000000     4.025000000
O    -2.312000000    -2.059000000     4.812000000
H    -1.918000000    -2.191000000     5.675000000
H    -3.026000000    -1.441000000     4.967000000
O    -4.772000000     0.718000000    -0.929000000
H    -4.041000000     1.330000000    -1.015000000
H    -5.224000000     0.995000000    -0.132000000
O     4.080000000    -2.010000000     0.613000000
H     3.181000000    -2.006000000     0.942000000
H     4.278000000    -1.088000000     0.448000000
O     5.508000000     2.898000000     0.820000000
H     4.901000000     3.549000000     1.171000000
H     5.592000000     2.248000000     1.517000000
O    -3.319000000     4.355000000    -5.280000000
H    -4.038000000     4.202000000    -4.667000000
H    -3.075000000     5.270000000    -5.139000000
O     1.991000000    -3.604000000     6.190000000
H     2.722000000    -3.498000000     6.798000000
H     2.292000000    -4.264000000     5.565000000
O     2.388000000    -4.526000000    -0.454000000
H     3.070000000    -4.593000000    -1.122000000
H     1.637000000    -4.153000000    -0.916000000
O     1.882000000    -7.194000000    -0.064000000
H     1.334000000    -7.202000000    -0.848000000
H     2.073000000    -6.267000000     0.086000000
O    -3.241000000    -0.603000000     1.164000000
H    -3.107000000     0.147000000     1.744000000
H    -2.576000000    -0.501000000     0.482000000
O     3.016000000    -5.414000000     4.460000000
H     2.614000000    -5.159000000     3.629000000
H     2.558000000    -6.216000000     4.712000000
O     5.255000000     6.241000000    -0.794000000
H     4.335000000     6.180000000    -0.536000000
H     5.485000000     5.354000000    -1.072000000
O    -0.399000000    -0.407000000     3.773000000
H    -1.167000000    -0.953000000     3.942000000
H    -0.727000000     0.303000000     3.220000000
O    -2.901000000     1.440000000     2.988000000
H    -3.544000000     1.682000000     3.655000000
H    -2.506000000     2.270000000     2.724000000
O     4.310000000     2.190000000     3.274000000
H     3.387000000     2.010000000     3.455000000
H     4.676000000     2.444000000     4.121000000
O     2.860000000    -2.476000000    -2.495000000
H     3.443000000    -2.575000000    -1.743000000
H     3.410000000    -2.674000000    -3.253000000
O    -0.289000000     3.498000000    -6.646000000
H    -0.289000000     3.399000000    -5.694000000
H    -0.592000000     2.652000000    -6.974000000
O     0.757000000     4.635000000     3.013000000
H     1.557000000     5.133000000     2.842000000
H     0.658000000     4.659000000     3.964000000
O    -4.035000000     6.641000000    -1.519000000
H    -3.201000000     6.173000000    -1.470000000
H    -4.291000000     6.578000000    -2.439000000
O     2.596000000     3.396000000    -5.025000000
H     1.833000000     3.324000000    -4.452000000
H     2.463000000     4.217000000    -5.498000000
O    -3.272000000    -3.788000000    -4.342000000
H    -3.239000000    -3.506000000    -5.256000000
H    -3.692000000    -3.062000000    -3.882000000
O    -2.002000000     3.933000000     2.002000000
H    -1.096000000     3.945000000     2.311000000
H    -2.413000000     4.681000000     2.435000000
O    -6.252000000     0.336000000    -3.129000000
H    -5.713000000     0.579000000    -2.376000000
H    -6.672000000     1.154000000    -3.397000000
O     0.132000000     2.391000000    -4.194000000
H     0.289000000     1.494000000    -3.899000000
H    -0.351000000     2.798000000    -3.475000000
O     4.484000000     0.423000000    -0.487000000
H     4.912000000     0.562000000    -1.332000000
H     4.458000000     1.292000000    -0.087000000
O     2.992000000     6.985000000    -3.614000000
H     2.445000000     7.770000000    -3.604000000
H     2.467000000     6.322000000    -3.164000000
O    -1.148000000    -3.840000000     2.802000000
H    -1.354000000    -3.008000000     3.227000000
H    -1.897000000    -4.403000000     3.000000000
O    -2.414000000    -5.460000000    -0.740000000
H    -2.709000000    -6.329000000    -1.013000000
H    -1.541000000    -5.607000000    -0.376000000
O     1.606000000    -6.205000000    -2.915000000
H     1.230000000    -5.331000000    -2.808000000
H     2.496000000    -6.127000000    -2.572000000
O    -4.739000000    -5.874000000     1.096000000
H    -4.102000000    -5.864000000     0.382000000
H    -4.949000000    -6.800000000     1.217000000
