158
-3056.06914
C    -1.396000000     0.135000000    -0.691000000
H    -2.327000000     0.012000000    -1.240000000
C    -0.806000000    -1.058000000    -0.240000000
H    -1.215000000    -2.046000000    -0.435000000
C     0.397000000    -1.014000000     0.405000000
H     0.915000000    -1.991000000     0.716000000
C     1.065000000     0.131000000     0.681000000
H     1.941000000     0.191000000     1.321000000
C     0.575000000     1.345000000     0.170000000
H     1.138000000     2.267000000     0.294000000
C    -0.646000000     1.342000000    -0.557000000
C    -1.149000000     2.619000000    -1.171000000
O    -2.159000000     2.618000000    -1.834000000
O    -0.370000000     3.555000000    -1.109000000
O     0.204000000     0.007000000    -4.558000000
H     0.901000000     0.006000000    -3.903000000
H    -0.240000000     0.846000000    -4.436000000
O    -5.835000000    -4.777000000    -1.038000000
H    -6.262000000    -3.972000000    -1.332000000
H    -4.905000000    -4.552000000    -0.995000000
O    -6.717000000     1.519000000    -3.481000000
H    -6.815000000     2.462000000    -3.348000000
H    -6.009000000     1.267000000    -2.889000000
O     0.715000000    -4.393000000    -0.521000000
H     0.052000000    -5.082000000    -0.554000000
H     0.767000000    -4.066000000    -1.419000000
O    -3.008000000    -4.263000000    -1.064000000
H    -2.453000000    -4.916000000    -0.638000000
H    -3.029000000    -3.529000000    -0.450000000
O     2.930000000     5.215000000     2.244000000
H     2.463000000     6.050000000     2.240000000
H     3.153000000     5.069000000     3.163000000
O     2.093000000     4.884000000    -0.590000000
H     1.226000000     4.512000000    -0.755000000
H     2.002000000     5.341000000     0.246000000
O    -0.665000000     2.643000000    -4.160000000
H    -1.147000000     2.660000000    -3.333000000
H    -0.179000000     3.468000000    -4.171000000
O    -3.129000000    -3.182000000    -3.538000000
H    -3.069000000    -3.445000000    -2.620000000
H    -3.817000000    -2.517000000    -3.553000000
O     2.457000000    -3.921000000     1.699000000
H     1.913000000    -4.029000000     0.919000000
H     1.973000000    -3.299000000     2.244000000
O     0.454000000     4.911000000    -3.264000000
H     0.167000000     4.410000000    -2.500000000
H     0.870000000     5.691000000    -2.897000000
O    -3.560000000    -2.614000000     1.269000000
H    -4.099000000    -1.879000000     0.975000000
H    -3.329000000    -2.396000000     2.172000000
O    -5.266000000    -0.453000000     0.866000000
H    -6.111000000    -0.528000000     1.310000000
H    -4.869000000     0.335000000     1.238000000
O    -2.191000000    -5.285000000     2.529000000
H    -1.873000000    -4.388000000     2.635000000
H    -3.134000000    -5.223000000     2.677000000
O    -0.806000000     5.765000000     0.316000000
H    -0.879000000     6.482000000    -0.314000000
H    -0.673000000     4.985000000    -0.223000000
O    -1.841000000     6.545000000     2.571000000
H    -1.247000000     7.287000000     2.680000000
H    -1.522000000     6.094000000     1.789000000
O    -2.960000000     5.343000000    -2.484000000
H    -2.910000000     4.419000000    -2.237000000
H    -2.070000000     5.566000000    -2.758000000
O    -4.147000000     3.180000000     0.636000000
H    -3.481000000     2.825000000     1.226000000
H    -3.778000000     4.008000000     0.329000000
O    -5.620000000    -1.796000000    -4.788000000
H    -6.534000000    -1.514000000    -4.836000000
H    -5.357000000    -1.602000000    -3.888000000
O     3.453000000    -5.235000000     4.167000000
H     3.103000000    -4.501000000     4.671000000
H     3.341000000    -4.973000000     3.253000000
O    -0.584000000    -2.441000000    -4.646000000
H    -0.331000000    -1.518000000    -4.628000000
H    -1.446000000    -2.462000000    -4.230000000
O     0.341000000    -4.588000000     5.211000000
H     0.136000000    -5.410000000     4.765000000
H     0.721000000    -4.857000000     6.047000000
O    -4.529000000     1.507000000    -1.529000000
H    -3.648000000     1.860000000    -1.655000000
H    -4.905000000     2.045000000    -0.832000000
O     4.178000000    -2.814000000    -0.374000000
H     3.843000000    -3.228000000     0.421000000
H     4.624000000    -2.025000000    -0.064000000
O     4.293000000     2.545000000     1.396000000
H     4.826000000     2.961000000     0.719000000
H     3.891000000     3.276000000     1.866000000
O    -3.805000000     3.261000000    -4.970000000
H    -3.349000000     2.525000000    -4.564000000
H    -4.694000000     3.217000000    -4.617000000
O    -0.060000000     0.550000000     5.095000000
H    -0.092000000    -0.256000000     5.611000000
H    -0.151000000     0.257000000     4.188000000
O     1.079000000    -4.085000000    -3.138000000
H     1.509000000    -4.672000000    -3.759000000
H     0.392000000    -3.657000000    -3.648000000
O     2.231000000    -7.707000000    -0.079000000
H     1.928000000    -7.510000000    -0.966000000
H     3.043000000    -7.208000000     0.012000000
O    -1.426000000    -0.246000000     2.489000000
H    -2.070000000     0.362000000     2.127000000
H    -0.950000000    -0.574000000     1.726000000
O    -0.793000000     7.461000000    -1.925000000
H    -1.578000000     7.917000000    -1.621000000
H    -0.135000000     8.151000000    -2.013000000
O    -0.686000000    -6.960000000     3.919000000
H    -1.348000000    -6.470000000     3.431000000
H    -0.274000000    -7.524000000     3.264000000
O     4.740000000     4.415000000    -1.113000000
H     3.864000000     4.290000000    -0.749000000
H     4.605000000     4.984000000    -1.871000000
O     1.310000000    -2.528000000     3.726000000
H     1.810000000    -2.673000000     4.529000000
H     0.526000000    -3.067000000     3.831000000
O     6.056000000     0.226000000     2.501000000
H     5.909000000     0.904000000     3.161000000
H     5.447000000     0.443000000     1.795000000
O     5.108000000    -5.488000000    -0.873000000
H     5.184000000    -4.536000000    -0.811000000
H     4.920000000    -5.772000000     0.022000000
O     1.903000000    -0.138000000    -2.478000000
H     1.374000000    -0.266000000    -1.691000000
H     2.426000000    -0.937000000    -2.548000000
O     0.594000000     2.882000000     3.365000000
H     0.945000000     3.768000000     3.452000000
H     1.114000000     2.357000000     3.974000000
O    -6.299000000     4.125000000    -2.868000000
H    -6.882000000     4.284000000    -2.126000000
H    -5.496000000     4.597000000    -2.647000000
O    -2.103000000     2.709000000     2.610000000
H    -1.171000000     2.546000000     2.755000000
H    -2.281000000     3.521000000     3.084000000
O    -5.304000000    -1.134000000    -2.057000000
H    -6.081000000    -1.434000000    -1.585000000
H    -4.981000000    -0.395000000    -1.540000000
O    -2.968000000     0.743000000    -3.846000000
H    -3.685000000     0.157000000    -3.606000000
H    -2.728000000     1.177000000    -3.028000000
O     2.555000000     2.083000000    -4.032000000
H     2.367000000     1.387000000    -3.402000000
H     2.110000000     2.853000000    -3.679000000
O     4.779000000    -0.031000000    -0.221000000
H     5.516000000     0.431000000    -0.620000000
H     4.003000000     0.397000000    -0.585000000
O    -1.354000000    -6.263000000    -0.126000000
H    -1.522000000    -5.957000000     0.765000000
H    -1.840000000    -7.085000000    -0.192000000
O     3.350000000    -2.531000000    -2.819000000
H     3.614000000    -2.720000000    -1.919000000
H     2.563000000    -3.060000000    -2.955000000
O    -2.070000000    -2.984000000     4.067000000
H    -2.530000000    -3.330000000     4.832000000
H    -1.912000000    -2.064000000     4.279000000
O     0.073000000    -1.970000000     6.411000000
H    -0.128000000    -2.375000000     7.255000000
H     0.285000000    -2.706000000     5.837000000
