158
-3038.05850
C    -1.070000000     0.583000000    -0.857000000
H    -1.808000000     0.885000000    -1.596000000
C    -0.866000000    -0.780000000    -0.597000000
H    -1.534000000    -1.513000000    -1.040000000
C     0.099000000    -1.156000000     0.333000000
H     0.103000000    -2.295000000     0.503000000
C     0.877000000    -0.211000000     1.010000000
H     1.561000000    -0.618000000     1.750000000
C     0.763000000     1.138000000     0.684000000
H     1.370000000     1.858000000     1.228000000
C    -0.247000000     1.538000000    -0.292000000
C    -0.307000000     2.956000000    -0.737000000
O    -0.883000000     3.199000000    -1.734000000
O     0.269000000     3.863000000    -0.107000000
O     3.207000000    -4.611000000     1.655000000
H     3.850000000    -5.304000000     1.806000000
H     2.935000000    -4.731000000     0.746000000
O     4.108000000    -1.217000000     0.568000000
H     5.061000000    -1.150000000     0.633000000
H     3.794000000    -1.040000000     1.454000000
O     1.264000000     7.006000000     1.976000000
H     0.587000000     7.445000000     2.491000000
H     1.888000000     7.700000000     1.762000000
O     5.643000000    -1.982000000     3.873000000
H     6.121000000    -1.201000000     3.594000000
H     4.771000000    -1.878000000     3.492000000
O     3.545000000     3.117000000    -1.258000000
H     2.727000000     3.416000000    -0.861000000
H     3.290000000     2.808000000    -2.127000000
O     2.424000000     4.782000000     1.270000000
H     1.625000000     4.509000000     0.818000000
H     2.219000000     5.651000000     1.615000000
O    -5.100000000    -1.444000000    -4.978000000
H    -5.032000000    -0.778000000    -4.295000000
H    -4.817000000    -2.253000000    -4.553000000
O    -5.218000000    -4.683000000     1.334000000
H    -4.434000000    -4.493000000     0.819000000
H    -4.885000000    -4.908000000     2.203000000
O     2.502000000    -1.535000000     5.087000000
H     2.727000000    -1.027000000     5.867000000
H     2.328000000    -2.416000000     5.418000000
O    -4.485000000    -0.882000000     0.394000000
H    -4.377000000    -0.636000000     1.313000000
H    -4.735000000    -0.068000000    -0.044000000
O    -3.117000000     2.008000000     2.583000000
H    -3.061000000     2.801000000     3.115000000
H    -3.329000000     2.323000000     1.704000000
O    -1.878000000    -5.407000000    -0.259000000
H    -2.219000000    -5.686000000     0.591000000
H    -2.215000000    -4.519000000    -0.372000000
O     0.742000000     6.184000000    -1.333000000
H     0.660000000     5.236000000    -1.230000000
H     0.504000000     6.538000000    -0.476000000
O    -3.201000000    -5.831000000    -2.774000000
H    -3.060000000    -6.005000000    -1.844000000
H    -2.944000000    -6.642000000    -3.211000000
O     0.026000000     5.009000000    -3.712000000
H    -0.439000000     4.375000000    -3.166000000
H     0.345000000     5.669000000    -3.096000000
O    -2.963000000     2.481000000    -3.381000000
H    -2.926000000     3.354000000    -3.773000000
H    -2.254000000     2.477000000    -2.738000000
O    -1.232000000    -2.406000000    -4.044000000
H    -1.391000000    -2.635000000    -4.960000000
H    -0.745000000    -1.583000000    -4.084000000
O     2.803000000     3.385000000     5.217000000
H     3.134000000     3.175000000     6.090000000
H     2.141000000     2.715000000     5.045000000
O    -2.564000000    -6.583000000     2.086000000
H    -2.740000000    -5.898000000     2.731000000
H    -1.719000000    -6.948000000     2.348000000
O    -1.248000000     0.218000000     3.581000000
H    -1.109000000    -0.399000000     2.862000000
H    -1.790000000     0.910000000     3.201000000
O     3.408000000     7.544000000    -0.832000000
H     3.173000000     6.998000000    -1.582000000
H     3.023000000     8.399000000    -1.026000000
O    -5.036000000     0.770000000    -3.265000000
H    -4.252000000     1.314000000    -3.336000000
H    -5.427000000     1.022000000    -2.428000000
O     3.704000000     0.043000000     3.314000000
H     3.204000000    -0.415000000     3.990000000
H     3.241000000     0.872000000     3.193000000
O    -2.028000000     8.076000000    -0.706000000
H    -1.346000000     8.341000000    -1.323000000
H    -2.164000000     7.146000000    -0.884000000
O     4.568000000     2.918000000     1.879000000
H     3.864000000     3.566000000     1.866000000
H     4.417000000     2.384000000     1.099000000
O     1.236000000    -6.806000000    -0.311000000
H     1.703000000    -6.032000000    -0.626000000
H     0.311000000    -6.566000000    -0.365000000
O     2.556000000    -4.223000000    -1.190000000
H     3.353000000    -3.721000000    -1.361000000
H     1.845000000    -3.595000000    -1.318000000
O    -0.075000000    -4.559000000    -2.585000000
H    -0.334000000    -4.150000000    -3.411000000
H    -0.831000000    -4.439000000    -2.010000000
O    -3.586000000     5.140000000    -3.916000000
H    -4.510000000     4.970000000    -4.101000000
H    -3.334000000     5.810000000    -4.551000000
O    -5.212000000     1.345000000    -0.366000000
H    -5.919000000     1.335000000     0.279000000
H    -4.803000000     2.203000000    -0.260000000
O    -0.819000000    -4.057000000     4.783000000
H    -0.417000000    -4.882000000     5.055000000
H    -0.375000000    -3.832000000     3.965000000
O     6.338000000    -0.088000000     1.729000000
H     6.363000000     0.310000000     0.860000000
H     5.683000000     0.420000000     2.207000000
O     0.649000000    -6.853000000    -3.746000000
H     0.404000000    -6.062000000    -3.265000000
H     1.429000000    -6.601000000    -4.239000000
O     0.323000000     2.011000000     5.081000000
H    -0.061000000     2.765000000     5.527000000
H    -0.429000000     1.509000000     4.768000000
O    -3.859000000     3.600000000     0.480000000
H    -3.056000000     4.109000000     0.593000000
H    -4.559000000     4.192000000     0.752000000
O     4.933000000    -3.041000000    -1.600000000
H     4.665000000    -2.661000000    -0.763000000
H     5.765000000    -3.474000000    -1.411000000
O     2.700000000    -2.285000000    -4.142000000
H     3.631000000    -2.213000000    -4.352000000
H     2.632000000    -1.965000000    -3.242000000
O    -1.117000000     3.518000000    -5.772000000
H    -1.885000000     3.875000000    -6.217000000
H    -0.636000000     4.289000000    -5.470000000
O    -1.576000000     6.708000000    -5.335000000
H    -0.787000000     6.380000000    -4.904000000
H    -1.353000000     6.720000000    -6.266000000
O    -2.314000000     5.425000000    -1.552000000
H    -2.840000000     5.165000000    -2.308000000
H    -1.697000000     4.703000000    -1.430000000
O    -1.308000000     5.141000000     1.363000000
H    -0.717000000     4.542000000     0.906000000
H    -0.726000000     5.741000000     1.830000000
O     0.030000000     1.501000000    -4.528000000
H    -0.551000000     2.178000000    -4.874000000
H    -0.396000000     1.209000000    -3.721000000
O     1.261000000     0.296000000     7.074000000
H     0.790000000    -0.458000000     7.428000000
H     1.235000000     0.171000000     6.125000000
O     2.745000000     2.170000000    -3.887000000
H     3.379000000     1.597000000    -4.318000000
H     1.893000000     1.788000000    -4.100000000
O     2.418000000    -1.397000000    -1.773000000
H     3.078000000    -1.272000000    -1.092000000
H     1.678000000    -0.858000000    -1.491000000
O     1.381000000    -3.107000000     2.962000000
H     1.785000000    -2.727000000     3.741000000
H     2.054000000    -3.683000000     2.599000000
O    -3.918000000    -3.603000000    -3.886000000
H    -3.187000000    -3.029000000    -3.660000000
H    -3.809000000    -4.366000000    -3.318000000
O    -3.484000000    -3.353000000    -0.097000000
H    -4.314000000    -3.309000000    -0.573000000
H    -3.321000000    -2.453000000     0.184000000
