158
-3036.90918
C    -0.505000000     1.187000000    -0.722000000
H    -1.017000000     2.028000000    -1.183000000
C    -1.343000000     0.122000000    -0.319000000
H    -2.419000000     0.104000000    -0.473000000
C    -0.739000000    -0.924000000     0.422000000
H    -1.287000000    -1.811000000     0.821000000
C     0.679000000    -0.964000000     0.488000000
H     1.156000000    -1.787000000     1.014000000
C     1.507000000     0.080000000     0.094000000
H     2.589000000     0.134000000     0.179000000
C     0.857000000     1.172000000    -0.509000000
C     1.787000000     2.303000000    -1.021000000
O     1.382000000     2.953000000    -1.969000000
O     2.866000000     2.581000000    -0.568000000
O    -5.712000000    -4.352000000     0.104000000
H    -5.617000000    -3.470000000     0.464000000
H    -6.657000000    -4.500000000     0.080000000
O    -6.199000000    -0.667000000     2.145000000
H    -6.048000000    -0.446000000     3.064000000
H    -5.322000000    -0.766000000     1.775000000
O     3.964000000    -2.105000000     0.389000000
H     4.401000000    -1.321000000     0.723000000
H     3.909000000    -2.689000000     1.144000000
O    -0.955000000    -6.740000000     2.193000000
H    -1.787000000    -7.156000000     2.419000000
H    -0.297000000    -7.247000000     2.669000000
O     2.312000000     5.850000000     1.541000000
H     2.038000000     6.727000000     1.271000000
H     2.907000000     6.002000000     2.275000000
O     5.421000000     2.232000000    -0.709000000
H     4.482000000     2.407000000    -0.774000000
H     5.690000000     2.033000000    -1.606000000
O     3.338000000     2.351000000     2.012000000
H     3.062000000     2.132000000     1.122000000
H     3.491000000     3.296000000     1.989000000
O    -3.126000000     0.494000000    -4.562000000
H    -2.224000000     0.441000000    -4.246000000
H    -3.384000000     1.401000000    -4.399000000
O    -4.760000000    -6.180000000     1.848000000
H    -5.097000000    -5.594000000     1.170000000
H    -4.164000000    -5.633000000     2.361000000
O    -3.651000000    -1.350000000     3.016000000
H    -3.363000000    -0.734000000     3.689000000
H    -3.617000000    -2.205000000     3.443000000
O    -3.206000000     2.099000000     3.129000000
H    -2.631000000     2.851000000     3.271000000
H    -3.263000000     2.017000000     2.177000000
O     5.278000000     1.673000000    -3.555000000
H     5.118000000     2.162000000    -4.362000000
H     4.449000000     1.230000000    -3.374000000
O    -1.199000000    -3.095000000    -2.315000000
H    -2.006000000    -2.738000000    -1.945000000
H    -0.836000000    -3.640000000    -1.618000000
O     3.020000000     5.215000000    -1.233000000
H     3.132000000     4.292000000    -1.005000000
H     2.760000000     5.634000000    -0.413000000
O    -3.088000000    -4.175000000     3.413000000
H    -3.055000000    -4.506000000     4.310000000
H    -2.197000000    -3.873000000     3.236000000
O     1.848000000     5.573000000    -4.667000000
H     2.220000000     5.199000000    -3.869000000
H     2.249000000     6.439000000    -4.736000000
O    -2.354000000    -0.810000000     5.546000000
H    -2.292000000    -0.012000000     6.072000000
H    -1.454000000    -1.127000000     5.485000000
O    -2.453000000     3.256000000    -3.837000000
H    -2.463000000     4.212000000    -3.800000000
H    -1.930000000     3.052000000    -4.612000000
O    -0.556000000     0.285000000    -3.518000000
H     0.147000000     0.857000000    -3.826000000
H    -0.440000000     0.253000000    -2.568000000
O    -1.007000000    -4.398000000     0.706000000
H    -0.628000000    -3.901000000     1.431000000
H    -1.061000000    -5.296000000     1.033000000
O    -0.734000000     1.221000000     2.856000000
H    -0.529000000     0.950000000     1.961000000
H    -1.658000000     1.471000000     2.824000000
O     5.125000000     7.060000000    -0.900000000
H     5.864000000     6.474000000    -1.061000000
H     4.354000000     6.543000000    -1.131000000
O    -4.602000000     2.045000000    -2.480000000
H    -3.932000000     2.566000000    -2.922000000
H    -4.324000000     2.024000000    -1.564000000
O     5.069000000     0.281000000     1.335000000
H     4.628000000     0.950000000     1.858000000
H     5.381000000     0.749000000     0.560000000
O     0.443000000     7.559000000    -2.884000000
H     1.395000000     7.519000000    -2.967000000
H     0.196000000     6.700000000    -2.542000000
O     5.790000000     4.132000000     1.370000000
H     6.427000000     4.725000000     0.972000000
H     5.397000000     3.669000000     0.630000000
O     8.064000000     1.639000000     0.628000000
H     8.639000000     2.334000000     0.308000000
H     7.262000000     1.737000000     0.116000000
O     2.350000000    -5.162000000     1.719000000
H     2.261000000    -4.265000000     2.041000000
H     1.685000000    -5.238000000     1.034000000
O    -4.363000000    -5.457000000    -2.504000000
H    -5.236000000    -5.066000000    -2.483000000
H    -3.815000000    -4.846000000    -2.012000000
O     1.849000000    -5.304000000    -1.787000000
H     1.777000000    -4.352000000    -1.847000000
H     2.410000000    -5.549000000    -2.523000000
O    -0.795000000    -2.184000000    -4.699000000
H    -0.664000000    -1.262000000    -4.480000000
H    -0.859000000    -2.625000000    -3.852000000
O    -3.764000000     2.555000000     0.203000000
H    -4.447000000     2.790000000     0.831000000
H    -3.276000000     3.367000000     0.065000000
O    -0.569000000    -3.105000000     3.292000000
H    -0.251000000    -2.208000000     3.194000000
H    -0.015000000    -3.483000000     3.975000000
O    -6.181000000    -4.143000000     3.653000000
H    -6.290000000    -3.228000000     3.914000000
H    -5.234000000    -4.282000000     3.657000000
O     1.703000000     2.439000000     4.554000000
H     1.274000000     2.068000000     3.784000000
H     2.164000000     3.210000000     4.223000000
O    -2.190000000     4.698000000    -0.055000000
H    -2.212000000     5.627000000    -0.284000000
H    -1.403000000     4.602000000     0.481000000
O     5.583000000    -4.074000000    -1.072000000
H     6.021000000    -4.700000000    -0.495000000
H     5.253000000    -3.396000000    -0.482000000
O     3.670000000    -1.700000000    -4.329000000
H     4.415000000    -2.277000000    -4.159000000
H     3.047000000    -1.902000000    -3.632000000
O    -0.780000000     2.689000000    -6.085000000
H    -0.038000000     2.418000000    -5.544000000
H    -0.695000000     2.171000000    -6.886000000
O    -0.123000000     5.131000000    -2.052000000
H    -0.894000000     4.829000000    -1.573000000
H     0.493000000     4.400000000    -2.001000000
O     0.070000000     4.277000000     1.331000000
H     0.724000000     4.873000000     1.697000000
H     0.580000000     3.542000000     0.990000000
O     1.451000000     2.314000000    -4.585000000
H     1.485000000     2.602000000    -3.672000000
H     2.303000000     2.559000000    -4.945000000
O     3.931000000     2.580000000    -5.821000000
H     4.280000000     2.070000000    -6.553000000
H     4.337000000     3.442000000    -5.915000000
O     2.224000000    -2.404000000    -2.091000000
H     2.870000000    -2.310000000    -1.392000000
H     1.460000000    -1.918000000    -1.778000000
O     2.004000000    -3.613000000     4.144000000
H     2.835000000    -3.241000000     3.848000000
H     2.255000000    -4.278000000     4.786000000
O     4.530000000    -3.047000000     2.846000000
H     5.109000000    -2.437000000     3.303000000
H     5.099000000    -3.771000000     2.587000000
O    -3.248000000    -3.811000000    -0.850000000
H    -4.055000000    -4.065000000    -0.402000000
H    -2.575000000    -3.846000000    -0.171000000
O     0.335000000    -0.697000000     4.623000000
H     0.996000000    -0.163000000     5.065000000
H    -0.158000000    -0.075000000     4.089000000
