158
-3064.48050
C     0.319000000     1.267000000    -0.734000000
H     0.605000000     2.040000000    -1.443000000
C    -0.593000000     0.242000000    -1.138000000
H    -1.141000000     0.224000000    -2.077000000
C    -0.875000000    -0.822000000    -0.290000000
H    -1.577000000    -1.586000000    -0.586000000
C    -0.243000000    -0.915000000     0.927000000
H    -0.534000000    -1.746000000     1.565000000
C     0.699000000     0.076000000     1.287000000
H     1.230000000     0.017000000     2.234000000
C     0.976000000     1.176000000     0.455000000
C     2.190000000     2.034000000     0.810000000
O     2.557000000     2.891000000     0.032000000
O     2.932000000     1.665000000     1.698000000
O     0.474000000    -0.237000000    -4.013000000
H     0.703000000     0.270000000    -4.792000000
H    -0.383000000     0.101000000    -3.751000000
O    -3.495000000    -3.176000000     0.534000000
H    -2.932000000    -3.775000000     0.046000000
H    -3.637000000    -3.612000000     1.375000000
O    -1.760000000    -7.596000000    -0.997000000
H    -1.589000000    -7.439000000    -1.926000000
H    -1.787000000    -6.721000000    -0.608000000
O     4.331000000    -0.623000000     1.644000000
H     3.940000000     0.250000000     1.674000000
H     3.805000000    -1.099000000     1.002000000
O     2.079000000    -3.567000000     0.765000000
H     1.920000000    -2.801000000     0.214000000
H     1.540000000    -3.420000000     1.542000000
O     0.467000000     6.263000000    -1.491000000
H     0.930000000     7.086000000    -1.335000000
H     0.823000000     5.942000000    -2.320000000
O     3.401000000     2.336000000     4.212000000
H     3.170000000     2.210000000     3.292000000
H     3.131000000     1.523000000     4.640000000
O    -6.456000000    -3.997000000     0.717000000
H    -5.719000000    -3.509000000     0.349000000
H    -6.719000000    -4.597000000     0.019000000
O    -3.612000000    -0.616000000     2.439000000
H    -3.431000000    -1.242000000     1.738000000
H    -4.559000000    -0.481000000     2.399000000
O    -1.021000000     3.358000000     2.883000000
H    -1.052000000     3.755000000     3.754000000
H    -0.520000000     3.979000000     2.355000000
O     4.977000000     4.103000000     2.884000000
H     4.422000000     3.364000000     3.131000000
H     5.001000000     4.077000000     1.928000000
O     4.962000000     4.022000000     0.192000000
H     4.072000000     3.685000000     0.090000000
H     5.371000000     3.880000000    -0.662000000
O     0.153000000     5.149000000     0.818000000
H     0.097000000     5.438000000    -0.092000000
H     1.080000000     4.949000000     0.950000000
O     2.051000000    -2.330000000    -3.036000000
H     2.627000000    -2.572000000    -3.761000000
H     1.509000000    -1.623000000    -3.387000000
O    -0.700000000     3.225000000    -3.205000000
H    -1.051000000     4.064000000    -3.504000000
H     0.204000000     3.217000000    -3.519000000
O    -4.813000000     1.619000000    -2.874000000
H    -5.195000000     2.384000000    -3.305000000
H    -4.124000000     1.979000000    -2.315000000
O     1.426000000     1.095000000    -6.359000000
H     0.870000000     1.455000000    -7.050000000
H     1.372000000     1.735000000    -5.649000000
O    -0.391000000    -1.368000000     4.802000000
H    -1.099000000    -1.325000000     5.444000000
H    -0.558000000    -0.633000000     4.211000000
O     5.355000000    -0.221000000    -1.812000000
H     4.552000000    -0.477000000    -1.359000000
H     5.134000000     0.605000000    -2.244000000
O     4.128000000     6.447000000    -1.637000000
H     4.527000000     7.207000000    -2.061000000
H     3.445000000     6.817000000    -1.077000000
O     1.374000000     4.716000000     4.900000000
H     1.875000000     4.254000000     4.228000000
H     2.039000000     5.097000000     5.474000000
O     5.664000000     1.856000000     5.584000000
H     4.810000000     1.993000000     5.175000000
H     5.977000000     2.737000000     5.787000000
O     3.635000000    -2.690000000     3.979000000
H     4.300000000    -3.213000000     3.532000000
H     2.807000000    -2.968000000     3.586000000
O    -0.407000000    -3.539000000    -3.399000000
H    -0.804000000    -3.137000000    -4.171000000
H     0.500000000    -3.234000000    -3.408000000
O    -1.153000000    -0.477000000    -6.781000000
H    -1.225000000     0.400000000    -6.406000000
H    -1.461000000    -1.060000000    -6.087000000
O    -4.582000000    -1.265000000    -1.475000000
H    -4.174000000    -1.855000000    -0.841000000
H    -4.144000000    -1.466000000    -2.303000000
O    -3.758000000    -5.068000000    -2.177000000
H    -4.298000000    -5.487000000    -1.507000000
H    -2.935000000    -4.869000000    -1.731000000
O    -2.070000000    -1.670000000    -4.580000000
H    -2.837000000    -2.183000000    -4.327000000
H    -2.407000000    -0.785000000    -4.716000000
O    -2.427000000     1.961000000     1.025000000
H    -1.755000000     1.330000000     0.765000000
H    -2.111000000     2.318000000     1.855000000
O     6.212000000    -0.659000000     3.879000000
H     5.969000000     0.062000000     4.460000000
H     5.377000000    -1.016000000     3.578000000
O     6.945000000     0.515000000     1.482000000
H     6.984000000     0.167000000     2.373000000
H     6.041000000     0.363000000     1.205000000
O     2.592000000     5.353000000     2.456000000
H     2.977000000     6.107000000     2.903000000
H     3.283000000     4.691000000     2.466000000
O     2.681000000    -0.253000000     4.804000000
H     1.781000000    -0.577000000     4.779000000
H     3.190000000    -0.924000000     4.349000000
O    -1.203000000    -4.429000000    -0.980000000
H    -0.334000000    -4.832000000    -0.979000000
H    -1.161000000    -3.771000000    -1.673000000
O    -6.480000000     0.200000000    -0.451000000
H    -6.221000000     1.121000000    -0.418000000
H    -5.753000000    -0.238000000    -0.894000000
O    -2.822000000     2.910000000    -1.443000000
H    -2.607000000     2.677000000    -0.540000000
H    -2.020000000     2.731000000    -1.934000000
O     1.572000000     3.181000000    -4.373000000
H     1.847000000     3.650000000    -5.161000000
H     2.159000000     3.500000000    -3.688000000
O    -1.888000000     0.792000000     4.216000000
H    -2.466000000     0.203000000     3.731000000
H    -1.789000000     1.554000000     3.645000000
O     3.068000000     3.848000000    -2.312000000
H     2.828000000     3.378000000    -1.513000000
H     3.021000000     4.773000000    -2.069000000
O     5.989000000     4.691000000    -2.722000000
H     5.191000000     5.030000000    -2.316000000
H     6.406000000     5.461000000    -3.109000000
O    -2.212000000     0.879000000    -4.253000000
H    -1.760000000     1.712000000    -4.123000000
H    -3.085000000     1.020000000    -3.886000000
O     4.963000000     2.167000000    -3.227000000
H     4.153000000     2.610000000    -2.975000000
H     5.641000000     2.836000000    -3.131000000
O     2.568000000    -1.330000000    -0.548000000
H     1.866000000    -0.681000000    -0.603000000
H     2.459000000    -1.869000000    -1.331000000
O    -6.646000000    -1.041000000    -3.662000000
H    -6.241000000    -0.191000000    -3.832000000
H    -6.577000000    -1.154000000    -2.714000000
O    -3.369000000    -4.374000000     2.866000000
H    -2.952000000    -3.816000000     3.522000000
H    -3.484000000    -5.216000000     3.305000000
O     0.989000000    -3.184000000     3.431000000
H     1.177000000    -3.915000000     4.019000000
H     0.248000000    -2.735000000     3.837000000
O    -4.430000000    -2.987000000    -3.590000000
H    -4.231000000    -3.863000000    -3.261000000
H    -5.386000000    -2.963000000    -3.644000000
O     1.211000000    -5.867000000    -0.706000000
H     1.692000000    -6.656000000    -0.955000000
H     1.842000000    -5.349000000    -0.207000000
