158
-3013.83384
C     0.646000000     0.784000000    -1.105000000
H     0.940000000     1.452000000    -1.911000000
C    -0.461000000    -0.048000000    -1.245000000
H    -1.024000000    -0.083000000    -2.174000000
C    -0.858000000    -0.881000000    -0.182000000
H    -1.713000000    -1.552000000    -0.203000000
C    -0.229000000    -0.776000000     1.029000000
H    -0.654000000    -1.285000000     1.890000000
C     0.880000000     0.060000000     1.170000000
H     1.313000000     0.196000000     2.158000000
C     1.252000000     0.984000000     0.157000000
C     2.309000000     1.934000000     0.458000000
O     2.696000000     2.637000000    -0.425000000
O     2.938000000     1.909000000     1.524000000
O     1.117000000    -0.870000000    -4.117000000
H     1.244000000     0.046000000    -4.363000000
H     0.192000000    -1.040000000    -4.294000000
O    -3.762000000    -4.185000000    -0.599000000
H    -2.902000000    -4.513000000    -0.337000000
H    -4.161000000    -3.881000000     0.216000000
O    -1.036000000     0.971000000    -6.998000000
H    -0.869000000     1.534000000    -6.242000000
H    -0.837000000     1.521000000    -7.755000000
O     0.295000000    -0.200000000     7.270000000
H     0.358000000    -0.224000000     6.315000000
H    -0.640000000    -0.088000000     7.445000000
O     4.699000000    -1.178000000     1.386000000
H     4.224000000    -0.411000000     1.068000000
H     4.637000000    -1.812000000     0.672000000
O     1.914000000     1.839000000     4.424000000
H     2.379000000     1.756000000     3.592000000
H     1.761000000     0.936000000     4.704000000
O    -7.312000000    -2.728000000     1.026000000
H    -7.490000000    -2.235000000     1.827000000
H    -6.522000000    -2.323000000     0.667000000
O    -4.218000000    -0.681000000     2.679000000
H    -3.988000000     0.023000000     2.072000000
H    -5.168000000    -0.763000000     2.600000000
O     7.180000000     2.144000000     4.116000000
H     6.546000000     2.202000000     3.401000000
H     7.652000000     2.977000000     4.085000000
O    -0.209000000     3.434000000     5.438000000
H     0.650000000     3.154000000     5.123000000
H    -0.421000000     4.201000000     4.907000000
O     0.140000000     3.999000000     1.791000000
H     0.901000000     4.444000000     2.163000000
H    -0.035000000     4.466000000     0.974000000
O     5.351000000     2.175000000     2.318000000
H     4.415000000     2.096000000     2.133000000
H     5.775000000     1.665000000     1.627000000
O     5.422000000     1.584000000    -0.648000000
H     4.560000000     1.970000000    -0.496000000
H     5.698000000     1.938000000    -1.493000000
O     0.834000000     5.777000000    -0.502000000
H     0.854000000     5.733000000    -1.458000000
H     1.717000000     5.524000000    -0.232000000
O     3.116000000    -2.378000000    -3.324000000
H     3.551000000    -2.580000000    -4.153000000
H     2.314000000    -1.923000000    -3.579000000
O    -0.772000000     3.214000000    -5.243000000
H    -1.675000000     3.532000000    -5.256000000
H    -0.366000000     3.616000000    -6.011000000
O    -0.282000000    -2.799000000     4.859000000
H     0.068000000    -2.623000000     5.733000000
H    -1.186000000    -2.485000000     4.896000000
O     6.312000000    -0.688000000    -1.750000000
H     5.737000000    -0.583000000    -2.508000000
H     6.155000000     0.094000000    -1.220000000
O     3.689000000     5.899000000    -2.443000000
H     3.545000000     6.821000000    -2.232000000
H     3.692000000     5.457000000    -1.594000000
O     2.745000000     4.140000000     2.673000000
H     2.673000000     3.448000000     2.015000000
H     3.495000000     3.884000000     3.209000000
O     4.340000000     0.293000000     5.573000000
H     3.496000000    -0.087000000     5.327000000
H     4.176000000     1.235000000     5.618000000
O    -0.320000000    -4.856000000    -2.370000000
H     0.445000000    -5.379000000    -2.128000000
H     0.022000000    -3.969000000    -2.483000000
O    -5.141000000    -1.702000000    -0.586000000
H    -4.315000000    -2.141000000    -0.789000000
H    -5.463000000    -1.395000000    -1.434000000
O    -3.729000000    -5.562000000    -3.140000000
H    -4.682000000    -5.651000000    -3.159000000
H    -3.511000000    -5.520000000    -2.208000000
O    -1.586000000    -1.404000000    -4.330000000
H    -2.091000000    -2.189000000    -4.117000000
H    -2.123000000    -0.679000000    -4.010000000
O    -1.267000000     1.747000000     2.252000000
H    -0.748000000     1.044000000     1.863000000
H    -0.771000000     2.544000000     2.063000000
O     5.537000000    -1.699000000     3.892000000
H     5.414000000    -0.776000000     4.114000000
H     5.310000000    -1.754000000     2.963000000
O     7.282000000    -0.518000000     2.156000000
H     6.404000000    -0.659000000     1.801000000
H     7.307000000    -1.051000000     2.951000000
O     3.267000000     5.072000000     0.110000000
H     3.385000000     5.196000000     1.052000000
H     3.084000000     4.138000000     0.012000000
O     2.060000000    -1.246000000     4.825000000
H     1.231000000    -1.613000000     4.517000000
H     2.531000000    -1.994000000     5.194000000
O    -3.420000000    -7.637000000     0.491000000
H    -3.526000000    -7.572000000     1.441000000
H    -2.918000000    -6.858000000     0.253000000
O    -1.486000000    -5.605000000     0.274000000
H    -1.046000000    -5.431000000    -0.559000000
H    -0.773000000    -5.744000000     0.897000000
O     1.102000000     5.235000000    -3.327000000
H     1.930000000     5.715000000    -3.367000000
H     0.777000000     5.242000000    -4.227000000
O    -7.419000000     0.283000000    -0.746000000
H    -7.086000000     1.117000000    -0.415000000
H    -6.681000000    -0.320000000    -0.660000000
O     1.652000000     1.784000000    -4.605000000
H     0.926000000     2.321000000    -4.290000000
H     2.428000000     2.162000000    -4.190000000
O    -0.582000000     0.418000000     4.771000000
H    -0.421000000     1.002000000     4.031000000
H    -1.519000000     0.509000000     4.949000000
O    -2.913000000    -1.969000000     4.865000000
H    -3.408000000    -2.789000000     4.874000000
H    -3.361000000    -1.427000000     4.215000000
O     3.562000000     3.043000000    -3.095000000
H     2.942000000     2.970000000    -2.369000000
H     3.706000000     3.984000000    -3.194000000
O    -2.701000000     1.235000000    -3.926000000
H    -2.627000000     1.578000000    -4.817000000
H    -3.298000000     1.840000000    -3.486000000
O     4.432000000     0.406000000    -3.456000000
H     3.827000000     0.178000000    -2.751000000
H     4.465000000     1.363000000    -3.444000000
O     2.932000000    -1.261000000    -0.890000000
H     2.199000000    -0.652000000    -0.983000000
H     2.951000000    -1.741000000    -1.719000000
O    -5.986000000    -0.636000000    -3.207000000
H    -5.828000000    -0.485000000    -4.139000000
H    -6.076000000     0.240000000    -2.833000000
O    -4.037000000    -3.695000000     2.212000000
H    -3.818000000    -2.767000000     2.291000000
H    -4.123000000    -3.999000000     3.116000000
O     1.369000000    -4.872000000     3.454000000
H     2.266000000    -4.668000000     3.718000000
H     0.855000000    -4.121000000     3.752000000
O     1.960000000    -4.150000000    -0.941000000
H     2.480000000    -4.315000000    -1.727000000
H     2.196000000    -3.261000000    -0.679000000
O    -4.285000000    -2.996000000    -4.895000000
H    -4.368000000    -3.755000000    -4.317000000
H    -4.867000000    -2.339000000    -4.514000000
O    -3.515000000     2.524000000     3.912000000
H    -2.900000000     2.142000000     3.285000000
H    -3.131000000     2.336000000     4.768000000
O    -5.454000000    -6.073000000     2.569000000
H    -5.102000000    -5.207000000     2.366000000
H    -4.684000000    -6.599000000     2.789000000
