158
-3041.27176
C     0.700000000     1.091000000    -0.763000000
H     1.103000000     1.897000000    -1.372000000
C    -0.318000000     0.217000000    -1.255000000
H    -0.775000000     0.338000000    -2.234000000
C    -0.892000000    -0.745000000    -0.410000000
H    -1.427000000    -1.570000000    -0.780000000
C    -0.411000000    -0.898000000     0.875000000
H    -0.809000000    -1.722000000     1.462000000
C     0.497000000     0.027000000     1.464000000
H     0.905000000    -0.147000000     2.457000000
C     1.092000000     1.009000000     0.597000000
C     2.198000000     1.846000000     1.072000000
O     2.928000000     2.510000000     0.332000000
O     2.458000000     1.887000000     2.245000000
O     0.560000000    -1.805000000    -3.903000000
H     0.790000000    -2.498000000    -3.283000000
H     0.929000000    -1.009000000    -3.520000000
O    -2.681000000    -4.337000000     2.454000000
H    -3.031000000    -3.704000000     1.827000000
H    -2.289000000    -3.800000000     3.143000000
O    -3.882000000    -0.007000000     1.603000000
H    -3.334000000     0.693000000     1.247000000
H    -4.484000000     0.440000000     2.198000000
O     5.393000000     2.066000000     1.490000000
H     4.495000000     2.026000000     1.160000000
H     5.412000000     2.852000000     2.036000000
O     2.691000000     0.060000000     4.192000000
H     2.577000000     0.730000000     3.519000000
H     3.288000000     0.457000000     4.827000000
O    -5.344000000    -0.395000000    -2.652000000
H    -6.171000000     0.034000000    -2.434000000
H    -4.684000000     0.091000000    -2.158000000
O     0.161000000    -6.083000000     3.656000000
H    -0.330000000    -6.377000000     2.890000000
H     0.359000000    -5.163000000     3.476000000
O     6.770000000     0.875000000    -0.473000000
H     6.694000000     1.468000000     0.275000000
H     6.199000000     1.255000000    -1.140000000
O    -1.440000000    -2.823000000     4.382000000
H    -1.786000000    -1.956000000     4.591000000
H    -0.495000000    -2.692000000     4.305000000
O    -2.949000000    -0.502000000     4.337000000
H    -2.717000000     0.415000000     4.483000000
H    -2.783000000    -0.646000000     3.406000000
O     4.796000000     2.135000000    -2.406000000
H     4.345000000     2.957000000    -2.215000000
H     4.505000000     1.901000000    -3.287000000
O    -3.837000000    -4.245000000    -2.225000000
H    -4.341000000    -4.194000000    -3.037000000
H    -2.924000000    -4.260000000    -2.511000000
O     2.577000000     4.851000000     0.903000000
H     1.641000000     4.902000000     1.098000000
H     2.758000000     3.914000000     0.839000000
O     2.246000000     3.601000000    -4.396000000
H     1.600000000     2.964000000    -4.092000000
H     2.698000000     3.883000000    -3.601000000
O    -3.882000000     1.636000000    -1.820000000
H    -3.768000000     1.825000000    -0.889000000
H    -3.038000000     1.858000000    -2.215000000
O     0.872000000     6.357000000     4.779000000
H     0.415000000     7.073000000     4.336000000
H     0.887000000     5.649000000     4.135000000
O    -1.154000000    -0.751000000    -5.955000000
H    -0.779000000     0.096000000    -6.195000000
H    -0.827000000    -0.915000000    -5.070000000
O     0.931000000    -1.437000000     5.892000000
H     0.337000000    -0.710000000     6.077000000
H     1.665000000    -1.035000000     5.426000000
O     4.560000000     6.860000000     0.383000000
H     5.197000000     6.147000000     0.421000000
H     3.709000000     6.426000000     0.446000000
O    -7.707000000    -1.297000000     1.100000000
H    -6.961000000    -0.701000000     1.038000000
H    -8.114000000    -1.262000000     0.234000000
O    -0.456000000     5.333000000    -3.499000000
H     0.394000000     5.641000000    -3.184000000
H    -0.732000000     5.996000000    -4.132000000
O     3.415000000     3.883000000     3.477000000
H     3.143000000     4.569000000     2.868000000
H     2.998000000     3.088000000     3.144000000
O     6.538000000     0.404000000     3.336000000
H     5.923000000     0.935000000     2.828000000
H     6.317000000     0.590000000     4.249000000
O     3.758000000    -3.163000000    -0.379000000
H     4.542000000    -3.655000000    -0.135000000
H     3.456000000    -2.771000000     0.440000000
O     2.527000000     3.056000000     6.045000000
H     2.729000000     3.132000000     5.113000000
H     1.941000000     3.792000000     6.224000000
O    -6.230000000    -4.381000000    -0.973000000
H    -6.258000000    -3.432000000    -1.098000000
H    -5.375000000    -4.643000000    -1.314000000
O     0.492000000    -4.910000000     0.826000000
H     0.985000000    -5.730000000     0.851000000
H    -0.257000000    -5.098000000     0.260000000
O    -1.971000000    -2.960000000    -4.051000000
H    -1.404000000    -2.215000000    -3.850000000
H    -2.669000000    -2.590000000    -4.592000000
O     6.172000000     4.170000000     3.213000000
H     5.285000000     4.269000000     3.558000000
H     6.692000000     3.889000000     3.966000000
O    -2.330000000     1.894000000     0.788000000
H    -1.944000000     2.769000000     0.756000000
H    -1.599000000     1.303000000     0.605000000
O     3.601000000    -2.030000000     2.170000000
H     4.504000000    -2.136000000     2.469000000
H     3.277000000    -1.270000000     2.652000000
O     6.755000000     4.148000000    -1.252000000
H     6.100000000     3.469000000    -1.413000000
H     6.936000000     4.516000000    -2.117000000
O     0.229000000     4.428000000     2.893000000
H    -0.137000000     3.849000000     3.561000000
H    -0.199000000     4.158000000     2.080000000
O    -1.464000000    -5.571000000    -4.481000000
H    -0.574000000    -5.596000000    -4.832000000
H    -1.644000000    -4.640000000    -4.351000000
O     1.335000000    -3.408000000     3.041000000
H     1.079000000    -3.883000000     2.250000000
H     2.161000000    -2.985000000     2.810000000
O     3.327000000     0.410000000    -4.330000000
H     3.878000000     0.088000000    -5.043000000
H     3.747000000     0.080000000    -3.536000000
O    -1.572000000     2.923000000    -3.380000000
H    -0.781000000     2.386000000    -3.440000000
H    -1.250000000     3.824000000    -3.386000000
O    -0.584000000     0.814000000     6.505000000
H     0.145000000     0.810000000     7.125000000
H    -1.304000000     1.224000000     6.983000000
O    -1.208000000     4.445000000    -0.035000000
H    -1.247000000     5.373000000     0.200000000
H    -1.451000000     4.422000000    -0.960000000
O     0.786000000     1.266000000    -4.264000000
H     1.631000000     0.846000000    -4.103000000
H     0.716000000     1.306000000    -5.217000000
O    -0.630000000     2.325000000     4.149000000
H    -0.293000000     1.621000000     4.703000000
H    -1.100000000     2.900000000     4.752000000
O     3.241000000     4.330000000    -1.762000000
H     3.141000000     3.999000000    -0.870000000
H     2.757000000     5.156000000    -1.767000000
O     3.737000000    -0.788000000    -2.029000000
H     4.241000000    -0.176000000    -1.492000000
H     3.473000000    -1.479000000    -1.421000000
O     1.329000000    -3.297000000    -1.820000000
H     2.186000000    -3.643000000    -1.572000000
H     0.787000000    -3.419000000    -1.040000000
O    -3.515000000    -2.577000000     0.422000000
H    -3.644000000    -1.634000000     0.515000000
H    -2.936000000    -2.667000000    -0.335000000
O    -6.806000000    -2.641000000    -3.604000000
H    -6.166000000    -3.069000000    -4.174000000
H    -6.424000000    -1.784000000    -3.417000000
O    -4.430000000    -6.013000000     1.026000000
H    -3.994000000    -5.542000000     1.736000000
H    -5.071000000    -5.390000000     0.683000000
O    -4.154000000    -1.325000000    -5.007000000
H    -3.972000000    -0.601000000    -5.606000000
H    -4.414000000    -0.900000000    -4.190000000
