158
-3043.94653
C     0.550000000    -0.937000000     0.953000000
H     0.992000000    -1.703000000     1.586000000
C     0.476000000    -1.169000000    -0.406000000
H     0.719000000    -2.105000000    -0.901000000
C     0.029000000    -0.155000000    -1.202000000
H    -0.237000000    -0.467000000    -2.212000000
C    -0.225000000     1.113000000    -0.692000000
H    -0.603000000     1.922000000    -1.312000000
C    -0.309000000     1.300000000     0.708000000
H    -0.801000000     2.169000000     1.138000000
C     0.052000000     0.223000000     1.536000000
C    -0.080000000     0.235000000     3.067000000
O    -0.580000000     1.202000000     3.623000000
O     0.282000000    -0.692000000     3.740000000
O     1.524000000     5.209000000     6.460000000
H     0.887000000     5.728000000     5.968000000
H     1.338000000     4.303000000     6.212000000
O     4.803000000     0.329000000    -2.588000000
H     5.337000000     0.600000000    -1.841000000
H     4.611000000    -0.594000000    -2.424000000
O     1.564000000     4.230000000     0.695000000
H     2.125000000     3.838000000     0.026000000
H     1.861000000     3.837000000     1.516000000
O    -0.893000000    -4.047000000     7.073000000
H    -0.600000000    -3.503000000     7.804000000
H    -1.049000000    -3.427000000     6.360000000
O    -2.964000000     2.042000000    -3.911000000
H    -2.940000000     2.748000000    -3.265000000
H    -3.870000000     1.732000000    -3.895000000
O    -4.401000000    -2.077000000     2.795000000
H    -3.883000000    -1.442000000     3.289000000
H    -3.752000000    -2.649000000     2.385000000
O    -1.620000000    -4.098000000    -4.124000000
H    -0.819000000    -3.915000000    -4.615000000
H    -1.918000000    -4.943000000    -4.458000000
O     2.071000000    -4.487000000    -1.562000000
H     2.239000000    -4.501000000    -0.620000000
H     2.316000000    -3.604000000    -1.836000000
O    -1.392000000     0.488000000    -5.655000000
H    -1.846000000     1.058000000    -5.034000000
H    -1.488000000     0.929000000    -6.499000000
O     3.447000000    -0.209000000     0.188000000
H     3.816000000     0.674000000     0.184000000
H     2.671000000    -0.147000000    -0.368000000
O    -2.687000000     3.761000000    -2.044000000
H    -1.983000000     3.783000000    -1.395000000
H    -2.806000000     4.676000000    -2.298000000
O     2.647000000    -0.450000000     7.570000000
H     2.138000000    -0.036000000     6.873000000
H     2.112000000    -1.192000000     7.850000000
O     2.636000000    -2.152000000    -2.746000000
H     2.798000000    -2.483000000    -3.630000000
H     2.211000000    -1.305000000    -2.882000000
O     1.021000000     2.964000000     4.866000000
H     1.541000000     2.177000000     5.030000000
H     0.210000000     2.638000000     4.476000000
O     4.206000000    -4.412000000     2.082000000
H     5.034000000    -4.482000000     2.557000000
H     4.240000000    -3.549000000     1.668000000
O    -1.933000000     5.900000000     1.670000000
H    -1.498000000     6.633000000     2.106000000
H    -2.867000000     6.099000000     1.742000000
O    -3.577000000    -2.493000000    -2.871000000
H    -2.812000000    -2.748000000    -3.387000000
H    -3.211000000    -2.114000000    -2.072000000
O    -1.171000000     5.726000000     4.813000000
H    -1.313000000     6.258000000     4.029000000
H    -1.310000000     4.826000000     4.520000000
O    -3.334000000    -0.048000000     4.255000000
H    -3.987000000     0.526000000     4.655000000
H    -2.493000000     0.325000000     4.522000000
O     4.866000000    -1.501000000     2.012000000
H     4.256000000    -1.342000000     1.291000000
H     4.382000000    -1.244000000     2.796000000
O     0.705000000    -3.183000000     4.037000000
H     0.539000000    -2.252000000     3.887000000
H     0.590000000    -3.588000000     3.178000000
O    -1.807000000    -2.331000000     5.014000000
H    -1.201000000    -2.236000000     4.280000000
H    -2.441000000    -1.624000000     4.894000000
O     2.196000000    -5.988000000     2.588000000
H     1.497000000    -5.491000000     2.163000000
H     2.974000000    -5.438000000     2.492000000
O     2.680000000    -3.171000000     5.827000000
H     1.750000000    -3.324000000     5.656000000
H     3.010000000    -2.779000000     5.018000000
O    -0.270000000     0.255000000     6.439000000
H    -0.279000000     0.191000000     5.484000000
H    -0.921000000     0.928000000     6.639000000
O    -2.662000000    -4.258000000     1.739000000
H    -2.756000000    -4.787000000     0.947000000
H    -3.187000000    -4.715000000     2.396000000
O    -1.920000000     3.455000000     3.509000000
H    -1.829000000     3.822000000     2.629000000
H    -1.705000000     2.528000000     3.405000000
O     1.552000000     3.102000000    -3.649000000
H     2.083000000     3.431000000    -4.373000000
H     0.650000000     3.167000000    -3.965000000
O     2.331000000     0.480000000     5.030000000
H     3.011000000    -0.190000000     4.970000000
H     1.536000000     0.044000000     4.723000000
O    -0.913000000     3.994000000    -4.639000000
H    -1.444000000     4.787000000    -4.715000000
H    -1.548000000     3.294000000    -4.492000000
O    -0.184000000     6.398000000    -2.951000000
H    -0.389000000     5.876000000    -3.726000000
H    -0.355000000     5.810000000    -2.215000000
O    -2.287000000     1.926000000     6.876000000
H    -2.841000000     2.650000000     6.584000000
H    -2.902000000     1.229000000     7.100000000
O     3.004000000    -3.444000000    -5.237000000
H     3.005000000    -3.070000000    -6.118000000
H     2.183000000    -3.933000000    -5.186000000
O     0.874000000    -5.332000000    -4.521000000
H     1.359000000    -4.888000000    -3.826000000
H     0.649000000    -6.185000000    -4.148000000
O    -4.221000000     2.618000000     0.350000000
H    -4.150000000     3.013000000    -0.519000000
H    -4.749000000     1.832000000     0.213000000
O    -1.555000000    -4.754000000    -1.188000000
H    -2.246000000    -4.254000000    -1.621000000
H    -0.887000000    -4.874000000    -1.863000000
O    -3.737000000    -0.972000000    -5.968000000
H    -2.873000000    -0.565000000    -5.914000000
H    -4.134000000    -0.805000000    -5.113000000
O    -0.841000000     5.125000000    -0.650000000
H    -1.263000000     5.580000000     0.079000000
H    -0.070000000     4.713000000    -0.261000000
O    -2.583000000    -1.480000000    -0.710000000
H    -2.786000000    -1.815000000     0.163000000
H    -1.742000000    -1.036000000    -0.607000000
O     5.208000000    -3.333000000    -1.259000000
H     5.338000000    -4.274000000    -1.380000000
H     4.660000000    -3.070000000    -1.998000000
O    -5.255000000    -0.279000000    -3.447000000
H    -5.042000000    -1.169000000    -3.166000000
H    -6.211000000    -0.257000000    -3.472000000
O     4.633000000    -1.221000000     4.817000000
H     4.920000000    -0.917000000     5.679000000
H     5.277000000    -1.885000000     4.571000000
O    -0.073000000    -4.267000000     1.575000000
H    -0.962000000    -4.128000000     1.902000000
H    -0.183000000    -4.410000000     0.635000000
O     3.084000000     3.029000000    -1.585000000
H     3.709000000     2.311000000    -1.687000000
H     2.380000000     2.823000000    -2.200000000
O     3.027000000     3.711000000     2.987000000
H     3.840000000     3.234000000     3.151000000
H     2.425000000     3.399000000     3.663000000
O    -4.180000000     3.748000000     5.606000000
H    -4.010000000     3.744000000     4.664000000
H    -5.049000000     4.139000000     5.691000000
O    -0.308000000    -1.538000000     8.252000000
H    -0.964000000    -1.098000000     8.792000000
H    -0.231000000    -0.989000000     7.472000000
O     0.434000000    -1.686000000    -5.366000000
H     0.595000000    -1.673000000    -6.309000000
H    -0.072000000    -0.891000000    -5.198000000
