158
-3031.57379
C     0.100000000     0.882000000    -1.183000000
H     0.075000000     1.351000000    -2.163000000
C    -0.946000000     0.004000000    -0.882000000
H    -1.821000000    -0.121000000    -1.514000000
C    -0.873000000    -0.737000000     0.280000000
H    -1.577000000    -1.492000000     0.498000000
C     0.158000000    -0.669000000     1.128000000
H     0.109000000    -1.276000000     2.029000000
C     1.194000000     0.184000000     0.853000000
H     1.933000000     0.358000000     1.631000000
C     1.177000000     0.957000000    -0.321000000
C     2.343000000     1.870000000    -0.586000000
O     2.286000000     2.599000000    -1.537000000
O     3.353000000     1.900000000     0.126000000
O    -6.575000000    -3.716000000    -3.192000000
H    -6.565000000    -3.788000000    -4.146000000
H    -6.017000000    -2.962000000    -3.003000000
O    -7.226000000    -0.603000000     1.856000000
H    -6.826000000    -0.831000000     2.695000000
H    -6.559000000    -0.086000000     1.405000000
O    -5.101000000     1.138000000     0.913000000
H    -4.233000000     1.236000000     0.522000000
H    -5.053000000     1.633000000     1.730000000
O     4.485000000    -3.622000000     2.775000000
H     4.268000000    -2.787000000     2.360000000
H     5.405000000    -3.768000000     2.554000000
O     2.152000000     5.553000000     2.740000000
H     2.785000000     6.086000000     2.260000000
H     1.378000000     6.111000000     2.817000000
O     4.940000000    -0.227000000     0.336000000
H     4.322000000     0.484000000     0.168000000
H     5.217000000    -0.514000000    -0.534000000
O     2.725000000     2.860000000     2.642000000
H     2.877000000     2.960000000     1.702000000
H     2.134000000     3.579000000     2.866000000
O    -3.051000000    -0.346000000    -4.658000000
H    -2.519000000     0.125000000    -5.301000000
H    -3.945000000    -0.044000000    -4.820000000
O    -3.580000000    -6.011000000     1.516000000
H    -4.206000000    -5.594000000     2.108000000
H    -2.731000000    -5.892000000     1.942000000
O    -5.669000000    -0.822000000     4.068000000
H    -6.434000000    -1.008000000     4.612000000
H    -5.350000000     0.024000000     4.384000000
O     7.319000000     1.818000000    -2.953000000
H     6.399000000     1.991000000    -2.755000000
H     7.312000000     1.482000000    -3.849000000
O    -3.482000000    -1.446000000     2.246000000
H    -4.303000000    -1.380000000     2.734000000
H    -2.958000000    -0.709000000     2.560000000
O    -2.263000000     0.958000000     3.602000000
H    -1.325000000     1.090000000     3.737000000
H    -2.524000000     1.673000000     3.020000000
O     4.586000000     1.862000000    -3.097000000
H     3.959000000     1.553000000    -3.751000000
H     4.045000000     2.125000000    -2.353000000
O    -0.907000000    -4.051000000    -1.189000000
H    -1.840000000    -4.160000000    -1.006000000
H    -0.468000000    -4.400000000    -0.413000000
O     4.675000000     4.361000000    -0.934000000
H     4.164000000     3.637000000    -1.296000000
H     4.677000000     4.206000000     0.010000000
O     2.872000000     5.452000000    -5.164000000
H     3.361000000     6.154000000    -4.733000000
H     3.522000000     5.009000000    -5.711000000
O    -2.445000000     3.111000000    -3.408000000
H    -1.998000000     3.886000000    -3.748000000
H    -1.821000000     2.397000000    -3.540000000
O    -0.203000000    -1.343000000    -4.244000000
H     0.330000000    -1.318000000    -3.450000000
H    -0.469000000    -0.434000000    -4.383000000
O    -1.190000000    -5.638000000     2.867000000
H    -1.588000000    -4.906000000     3.338000000
H    -0.478000000    -5.931000000     3.435000000
O     0.936000000     0.885000000     4.190000000
H     0.728000000     1.259000000     5.046000000
H     1.474000000     1.551000000     3.761000000
O     6.529000000     6.144000000    -1.749000000
H     6.905000000     5.849000000    -2.579000000
H     5.976000000     5.417000000    -1.465000000
O    -6.863000000     0.202000000    -0.925000000
H    -6.356000000    -0.580000000    -1.143000000
H    -6.308000000     0.684000000    -0.312000000
O    -4.785000000     3.208000000    -2.122000000
H    -5.092000000     2.544000000    -2.740000000
H    -3.837000000     3.230000000    -2.247000000
O     5.080000000    -0.892000000     2.866000000
H     4.149000000    -0.713000000     3.002000000
H     5.248000000    -0.613000000     1.966000000
O     2.414000000     6.939000000    -1.071000000
H     2.994000000     7.026000000    -1.828000000
H     1.795000000     6.253000000    -1.322000000
O     5.447000000     2.398000000     1.792000000
H     5.009000000     2.803000000     2.540000000
H     4.735000000     2.037000000     1.264000000
O     7.924000000     1.290000000     1.103000000
H     7.969000000     1.855000000     0.331000000
H     7.059000000     1.461000000     1.475000000
O     2.703000000    -5.366000000     2.002000000
H     3.259000000    -4.696000000     2.399000000
H     2.058000000    -5.574000000     2.678000000
O    -3.762000000    -5.460000000    -3.153000000
H    -4.010000000    -5.299000000    -2.242000000
H    -3.487000000    -4.604000000    -3.481000000
O     0.260000000    -5.800000000     0.603000000
H    -0.307000000    -5.781000000     1.375000000
H     1.134000000    -5.611000000     0.944000000
O    -1.840000000    -3.595000000    -3.829000000
H    -1.609000000    -2.725000000    -4.153000000
H    -1.301000000    -3.710000000    -3.046000000
O    -1.115000000     5.600000000    -3.310000000
H    -1.767000000     6.300000000    -3.345000000
H    -0.622000000     5.691000000    -4.125000000
O    -2.377000000     2.819000000     0.364000000
H    -2.429000000     3.725000000     0.060000000
H    -1.824000000     2.381000000    -0.283000000
O    -2.088000000    -3.490000000     4.149000000
H    -2.784000000    -2.960000000     3.760000000
H    -1.924000000    -3.083000000     5.000000000
O     3.442000000     3.875000000     5.444000000
H     2.550000000     4.125000000     5.203000000
H     3.525000000     2.969000000     5.148000000
O    -1.592000000     5.565000000     0.196000000
H    -0.819000000     5.385000000    -0.340000000
H    -2.199000000     6.003000000    -0.400000000
O     3.355000000    -3.411000000    -2.761000000
H     3.614000000    -4.241000000    -2.359000000
H     2.782000000    -3.000000000    -2.113000000
O    -0.588000000     1.588000000    -4.951000000
H     0.063000000     2.266000000    -4.770000000
H    -0.645000000     1.560000000    -5.906000000
O     0.638000000     4.854000000    -1.413000000
H     0.035000000     4.793000000    -2.154000000
H     1.249000000     4.128000000    -1.540000000
O    -0.679000000     3.807000000     2.511000000
H    -0.768000000     4.710000000     2.204000000
H    -1.128000000     3.283000000     1.848000000
O     1.054000000     3.609000000    -4.294000000
H     1.541000000     3.348000000    -3.512000000
H     1.541000000     4.357000000    -4.640000000
O     3.376000000     0.295000000    -5.128000000
H     3.661000000     0.718000000    -5.938000000
H     3.995000000    -0.425000000    -5.003000000
O     1.440000000    -2.580000000    -0.889000000
H     1.120000000    -1.957000000    -0.236000000
H     0.661000000    -3.070000000    -1.154000000
O    -4.392000000    -1.925000000    -2.755000000
H    -3.912000000    -2.597000000    -2.271000000
H    -3.711000000    -1.388000000    -3.159000000
O    -3.827000000    -4.328000000    -0.688000000
H    -4.408000000    -3.818000000    -0.124000000
H    -3.787000000    -5.190000000    -0.274000000
O    -6.220000000    -3.305000000     0.902000000
H    -6.594000000    -2.437000000     1.052000000
H    -5.956000000    -3.605000000     1.772000000
O     0.697000000    -1.197000000     5.849000000
H     0.915000000    -0.640000000     5.102000000
H     1.332000000    -1.912000000     5.808000000
