158
-3054.27344
C     0.341000000    -0.026000000    -1.438000000
H     0.556000000    -0.209000000    -2.488000000
C     0.026000000    -1.143000000    -0.648000000
H    -0.175000000    -2.120000000    -1.079000000
C    -0.295000000    -1.000000000     0.710000000
H    -0.640000000    -1.835000000     1.281000000
C    -0.280000000     0.255000000     1.224000000
H    -0.488000000     0.513000000     2.259000000
C     0.100000000     1.371000000     0.433000000
H     0.032000000     2.360000000     0.878000000
C     0.409000000     1.258000000    -0.884000000
C     0.855000000     2.464000000    -1.684000000
O     1.149000000     2.308000000    -2.884000000
O     1.002000000     3.549000000    -1.142000000
O     1.369000000    -1.030000000    -5.562000000
H     0.866000000    -0.713000000    -6.312000000
H     1.027000000    -1.909000000    -5.399000000
O    -3.916000000    -0.849000000    -3.412000000
H    -3.611000000    -0.684000000    -2.520000000
H    -3.177000000    -0.602000000    -3.968000000
O    -4.280000000     2.073000000    -0.468000000
H    -3.422000000     2.488000000    -0.382000000
H    -4.897000000     2.728000000    -0.141000000
O     1.306000000    -1.041000000     5.553000000
H     0.430000000    -0.783000000     5.266000000
H     1.890000000    -0.702000000     4.874000000
O     5.633000000    -0.900000000    -3.200000000
H     5.606000000    -1.129000000    -4.130000000
H     4.964000000    -0.223000000    -3.100000000
O    -1.755000000    -6.444000000     4.461000000
H    -2.383000000    -7.159000000     4.561000000
H    -2.297000000    -5.661000000     4.365000000
O    -1.209000000    -0.441000000     4.607000000
H    -1.655000000    -0.972000000     3.946000000
H    -1.781000000    -0.483000000     5.373000000
O     2.127000000     2.803000000     2.551000000
H     2.379000000     3.692000000     2.302000000
H     1.855000000     2.878000000     3.466000000
O     4.354000000     1.454000000    -1.743000000
H     3.988000000     1.615000000    -0.874000000
H     3.600000000     1.210000000    -2.280000000
O     3.304000000    -1.907000000     0.090000000
H     3.424000000    -0.959000000     0.035000000
H     2.634000000    -2.102000000    -0.565000000
O    -0.116000000     4.797000000     0.874000000
H     0.441000000     4.385000000     0.214000000
H     0.350000000     5.599000000     1.113000000
O     4.750000000     4.992000000     0.872000000
H     5.486000000     4.428000000     0.636000000
H     4.231000000     5.057000000     0.071000000
O    -3.070000000    -0.362000000    -0.792000000
H    -2.148000000    -0.248000000    -0.564000000
H    -3.533000000     0.268000000    -0.239000000
O    -2.758000000     4.121000000     0.369000000
H    -3.041000000     4.729000000     1.052000000
H    -1.803000000     4.109000000     0.440000000
O     1.691000000    -3.130000000     3.331000000
H     2.532000000    -3.518000000     3.570000000
H     1.890000000    -2.209000000     3.162000000
O     3.589000000     1.081000000     0.950000000
H     4.360000000     1.118000000     1.516000000
H     2.927000000     1.595000000     1.412000000
O    -0.735000000     5.124000000    -2.805000000
H    -0.224000000     4.604000000    -2.184000000
H    -0.167000000     5.210000000    -3.570000000
O     1.128000000     2.440000000     4.974000000
H     0.428000000     3.049000000     4.738000000
H     0.777000000     1.576000000     4.759000000
O    -2.136000000     0.244000000    -4.914000000
H    -1.483000000     0.939000000    -4.833000000
H    -1.766000000    -0.358000000    -5.560000000
O     2.044000000    -7.227000000     1.458000000
H     1.171000000    -7.616000000     1.513000000
H     1.882000000    -6.292000000     1.337000000
O    -3.754000000    -4.622000000     4.902000000
H    -4.482000000    -4.549000000     4.285000000
H    -3.741000000    -3.781000000     5.358000000
O     3.965000000    -3.489000000    -4.554000000
H     4.672000000    -3.913000000    -4.067000000
H     3.294000000    -3.310000000    -3.896000000
O     0.792000000    -4.703000000     0.833000000
H    -0.003000000    -4.552000000     0.322000000
H     0.698000000    -4.134000000     1.597000000
O     2.374000000     7.300000000    -2.444000000
H     3.203000000     7.588000000    -2.825000000
H     1.731000000     7.935000000    -2.762000000
O    -2.575000000     2.459000000     4.523000000
H    -2.213000000     3.255000000     4.135000000
H    -1.881000000     1.807000000     4.424000000
O     1.425000000     7.129000000     0.210000000
H     1.857000000     7.253000000    -0.636000000
H     1.985000000     7.590000000     0.835000000
O    -0.287000000    -3.287000000    -5.098000000
H    -0.197000000    -3.437000000    -4.157000000
H    -1.167000000    -2.921000000    -5.199000000
O    -5.268000000    -3.096000000    -2.499000000
H    -4.858000000    -2.926000000    -1.651000000
H    -4.942000000    -2.398000000    -3.067000000
O    -0.654000000    -7.540000000     1.555000000
H    -0.941000000    -6.849000000     2.153000000
H    -0.877000000    -8.354000000     2.006000000
O     3.175000000     4.914000000    -1.363000000
H     2.838000000     5.723000000    -1.747000000
H     2.421000000     4.326000000    -1.342000000
O     2.459000000    -0.020000000     3.521000000
H     3.409000000     0.072000000     3.443000000
H     2.106000000     0.590000000     2.874000000
O    -0.148000000    -3.918000000    -2.602000000
H    -0.798000000    -4.121000000    -1.929000000
H     0.489000000    -4.630000000    -2.542000000
O     2.559000000    -3.084000000    -2.385000000
H     1.619000000    -2.940000000    -2.488000000
H     2.622000000    -3.864000000    -1.833000000
O    -0.870000000    -3.780000000     3.975000000
H    -0.077000000    -3.369000000     3.630000000
H    -0.552000000    -4.538000000     4.467000000
O    -0.593000000     2.461000000    -4.850000000
H    -0.026000000     2.132000000    -4.154000000
H    -0.943000000     3.283000000    -4.506000000
O    -5.107000000    -3.109000000     2.632000000
H    -5.901000000    -2.899000000     3.124000000
H    -5.214000000    -2.650000000     1.798000000
O    -5.272000000    -1.617000000     0.179000000
H    -6.028000000    -1.029000000     0.191000000
H    -4.529000000    -1.048000000    -0.021000000
O     2.656000000     4.213000000    -4.372000000
H     2.111000000     3.443000000    -4.212000000
H     2.981000000     4.460000000    -3.506000000
O     2.776000000     5.591000000     2.497000000
H     3.140000000     6.267000000     3.068000000
H     3.456000000     5.439000000     1.841000000
O    -3.572000000    -1.982000000     5.905000000
H    -4.508000000    -1.825000000     6.032000000
H    -3.145000000    -1.243000000     6.338000000
O     0.934000000     6.102000000    -5.340000000
H     1.522000000     6.857000000    -5.337000000
H     1.488000000     5.365000000    -5.082000000
O     4.278000000     2.497000000    -6.194000000
H     3.848000000     2.701000000    -5.364000000
H     3.744000000     2.937000000    -6.855000000
O     2.862000000     0.543000000    -3.825000000
H     2.237000000     1.149000000    -3.428000000
H     2.364000000     0.102000000    -4.514000000
O    -2.560000000    -3.816000000     1.777000000
H    -3.430000000    -3.558000000     2.083000000
H    -2.075000000    -4.017000000     2.577000000
O     4.646000000    -4.020000000     1.058000000
H     3.987000000    -3.329000000     0.994000000
H     4.606000000    -4.469000000     0.213000000
O    -1.321000000     6.920000000    -0.830000000
H    -0.494000000     7.210000000    -0.444000000
H    -1.065000000     6.269000000    -1.483000000
O    -1.776000000    -4.726000000    -0.579000000
H    -2.487000000    -5.319000000    -0.823000000
H    -2.132000000    -4.212000000     0.146000000
O    -2.537000000     5.572000000     2.623000000
H    -1.809000000     4.998000000     2.861000000
H    -2.123000000     6.315000000     2.185000000
