158
-3016.29073
C     1.021000000     0.635000000    -0.784000000
H     1.827000000     1.011000000    -1.409000000
C     0.849000000    -0.762000000    -0.639000000
H     1.507000000    -1.502000000    -1.086000000
C    -0.094000000    -1.195000000     0.217000000
H    -0.070000000    -2.245000000     0.355000000
C    -0.957000000    -0.309000000     0.865000000
H    -1.606000000    -0.766000000     1.608000000
C    -0.913000000     1.041000000     0.561000000
H    -1.480000000     1.778000000     1.125000000
C     0.127000000     1.540000000    -0.262000000
C     0.201000000     3.063000000    -0.590000000
O     1.015000000     3.530000000    -1.290000000
O    -0.538000000     3.862000000     0.003000000
O    -0.110000000    -2.963000000    -3.490000000
H    -0.519000000    -3.155000000    -4.333000000
H     0.300000000    -2.106000000    -3.611000000
O    -1.168000000    -5.881000000    -0.187000000
H    -0.331000000    -5.605000000     0.186000000
H    -1.407000000    -5.176000000    -0.789000000
O    -4.479000000     0.994000000    -0.226000000
H    -5.117000000     1.137000000    -0.925000000
H    -3.791000000     0.469000000    -0.633000000
O    -3.376000000    -1.272000000     3.449000000
H    -3.472000000    -0.322000000     3.513000000
H    -2.458000000    -1.435000000     3.666000000
O     1.387000000     2.700000000     3.182000000
H     1.106000000     3.531000000     2.799000000
H     0.583000000     2.312000000     3.528000000
O     5.808000000     1.602000000     0.248000000
H     5.425000000     1.870000000    -0.587000000
H     5.071000000     1.253000000     0.749000000
O     4.181000000    -1.534000000    -1.163000000
H     5.093000000    -1.771000000    -0.989000000
H     4.184000000    -1.222000000    -2.068000000
O    -2.905000000     1.594000000    -3.176000000
H    -3.591000000     1.711000000    -2.519000000
H    -2.720000000     0.655000000    -3.166000000
O     1.790000000     5.666000000    -0.118000000
H     1.365000000     4.895000000    -0.493000000
H     1.287000000     5.856000000     0.674000000
O    -3.035000000     3.809000000     1.274000000
H    -3.479000000     3.758000000     0.427000000
H    -2.106000000     3.872000000     1.054000000
O     3.048000000    -1.572000000     2.049000000
H     2.799000000    -0.648000000     2.057000000
H     3.387000000    -1.722000000     1.166000000
O     2.435000000     6.243000000    -5.670000000
H     2.233000000     5.685000000    -4.919000000
H     2.557000000     5.631000000    -6.396000000
O     3.980000000     4.154000000    -0.032000000
H     4.019000000     3.988000000    -0.974000000
H     3.342000000     4.861000000     0.060000000
O     3.806000000    -2.530000000    -4.157000000
H     4.602000000    -2.032000000    -3.972000000
H     3.646000000    -2.389000000    -5.090000000
O    -5.833000000    -2.191000000     2.932000000
H    -5.667000000    -3.006000000     3.407000000
H    -4.985000000    -1.747000000     2.914000000
O    -0.855000000    -1.832000000     4.702000000
H    -0.269000000    -2.587000000     4.650000000
H    -1.426000000    -2.022000000     5.446000000
O    -3.557000000    -6.263000000     0.972000000
H    -2.746000000    -6.418000000     0.488000000
H    -3.636000000    -7.017000000     1.556000000
O     4.891000000     1.564000000    -5.864000000
H     4.179000000     1.443000000    -5.235000000
H     5.215000000     0.679000000    -6.031000000
O     1.159000000    -4.971000000    -2.528000000
H     0.731000000    -4.216000000    -2.931000000
H     1.761000000    -4.591000000    -1.888000000
O     1.146000000    -5.228000000     1.043000000
H     1.127000000    -4.748000000     1.871000000
H     1.781000000    -4.754000000     0.507000000
O     4.615000000    -2.799000000     4.095000000
H     5.057000000    -3.201000000     3.346000000
H     3.963000000    -2.217000000     3.704000000
O     0.494000000    -6.885000000    -4.292000000
H     0.830000000    -6.445000000    -5.073000000
H     0.671000000    -6.272000000    -3.578000000
O     2.526000000    -6.222000000     3.820000000
H     2.432000000    -5.408000000     3.324000000
H     3.364000000    -6.131000000     4.273000000
O    -1.913000000    -4.007000000    -1.638000000
H    -2.764000000    -4.062000000    -2.074000000
H    -1.330000000    -3.631000000    -2.297000000
O    -4.405000000     3.974000000    -1.159000000
H    -4.361000000     4.504000000    -1.955000000
H    -5.122000000     3.361000000    -1.318000000
O    -0.609000000    -7.281000000     2.574000000
H    -0.767000000    -7.983000000     1.943000000
H    -0.121000000    -6.621000000     2.082000000
O     2.246000000    -7.862000000     1.405000000
H     2.356000000    -7.788000000     2.353000000
H     1.852000000    -7.029000000     1.144000000
O    -0.161000000     4.981000000     2.294000000
H    -0.381000000     4.496000000     1.498000000
H    -0.704000000     5.768000000     2.253000000
O     0.142000000    -0.054000000    -4.132000000
H     0.398000000    -0.048000000    -5.055000000
H    -0.508000000     0.645000000    -4.060000000
O     2.927000000    -3.917000000    -0.495000000
H     3.663000000    -4.515000000    -0.368000000
H     3.324000000    -3.120000000    -0.847000000
O    -4.373000000     6.642000000     0.042000000
H    -4.292000000     5.726000000    -0.224000000
H    -5.226000000     6.691000000     0.472000000
O    -2.720000000    -1.005000000    -1.956000000
H    -1.773000000    -1.055000000    -1.826000000
H    -3.089000000    -1.487000000    -1.216000000
O    -0.068000000     5.931000000     5.076000000
H    -0.134000000     5.532000000     4.208000000
H     0.306000000     5.243000000     5.627000000
O     1.166000000    -3.751000000     3.157000000
H     0.226000000    -3.588000000     3.227000000
H     1.541000000    -2.899000000     2.936000000
O    -1.757000000     7.856000000    -3.206000000
H    -1.744000000     7.157000000    -2.553000000
H    -2.686000000     8.055000000    -3.325000000
O    -1.876000000     5.841000000    -1.103000000
H    -1.419000000     5.091000000    -0.722000000
H    -2.555000000     6.057000000    -0.464000000
O    -3.854000000    -2.469000000     0.282000000
H    -3.414000000    -2.088000000     1.042000000
H    -3.357000000    -3.264000000     0.091000000
O     3.367000000     1.405000000     1.492000000
H     2.608000000     1.323000000     0.914000000
H     3.136000000     2.116000000     2.090000000
O    -4.083000000     1.441000000     2.636000000
H    -4.455000000     0.937000000     1.913000000
H    -3.622000000     2.165000000     2.211000000
O     4.884000000     2.596000000    -2.168000000
H     4.518000000     2.096000000    -2.898000000
H     5.799000000     2.739000000    -2.412000000
O     3.010000000     1.157000000    -3.988000000
H     2.321000000     1.794000000    -3.799000000
H     2.688000000     0.337000000    -3.614000000
O    -0.742000000     1.096000000     4.352000000
H    -0.643000000     0.170000000     4.574000000
H    -1.379000000     1.427000000     4.986000000
O     1.189000000     4.411000000    -3.798000000
H     1.400000000     3.941000000    -2.991000000
H     0.232000000     4.422000000    -3.825000000
O    -2.196000000    -4.370000000     2.995000000
H    -2.949000000    -4.111000000     3.526000000
H    -2.567000000    -4.920000000     2.305000000
O     2.427000000     6.745000000    -2.707000000
H     2.119000000     6.763000000    -1.801000000
H     2.099000000     5.916000000    -3.055000000
O    -0.199000000    -5.729000000     5.114000000
H    -0.700000000    -6.069000000     4.373000000
H     0.708000000    -5.967000000     4.920000000
O    -1.588000000     4.634000000    -3.925000000
H    -1.603000000     3.860000000    -3.362000000
H    -2.162000000     5.262000000    -3.486000000
O    -3.179000000     5.007000000     3.729000000
H    -3.072000000     4.218000000     3.198000000
H    -2.649000000     5.668000000     3.284000000
