158
-3038.26246
C     0.090000000     0.439000000    -1.427000000
H     0.328000000     0.605000000    -2.474000000
C     0.219000000    -0.898000000    -1.037000000
H     0.490000000    -1.701000000    -1.717000000
C     0.128000000    -1.143000000     0.360000000
H     0.321000000    -2.109000000     0.775000000
C    -0.164000000    -0.136000000     1.259000000
H    -0.446000000    -0.337000000     2.290000000
C    -0.294000000     1.172000000     0.826000000
H    -0.734000000     1.907000000     1.494000000
C    -0.122000000     1.480000000    -0.530000000
C    -0.300000000     2.879000000    -0.981000000
O     0.026000000     3.124000000    -2.131000000
O    -0.601000000     3.791000000    -0.245000000
O     0.315000000    -0.503000000    -5.174000000
H     0.230000000    -0.380000000    -6.120000000
H    -0.573000000    -0.389000000    -4.837000000
O     4.138000000     1.807000000    -5.632000000
H     3.325000000     1.969000000    -5.152000000
H     4.107000000     2.418000000    -6.368000000
O    -2.178000000    -0.780000000    -4.368000000
H    -2.429000000    -0.231000000    -3.624000000
H    -3.004000000    -1.147000000    -4.684000000
O    -3.681000000     0.924000000    -2.670000000
H    -3.380000000     1.477000000    -1.949000000
H    -4.522000000     0.577000000    -2.372000000
O    -1.423000000    -4.717000000     3.121000000
H    -2.009000000    -5.398000000     3.451000000
H    -1.727000000    -3.914000000     3.544000000
O    -0.732000000     1.925000000     5.952000000
H    -0.356000000     1.249000000     5.389000000
H    -0.781000000     1.517000000     6.817000000
O     1.952000000     3.167000000     3.683000000
H     2.399000000     3.969000000     3.414000000
H     1.024000000     3.401000000     3.688000000
O     3.169000000     2.727000000     0.331000000
H     3.063000000     2.142000000     1.082000000
H     2.658000000     2.317000000    -0.366000000
O     4.369000000    -0.202000000     0.573000000
H     3.813000000     0.216000000     1.231000000
H     4.219000000     0.306000000    -0.224000000
O    -2.118000000     4.730000000     1.765000000
H    -1.737000000     4.346000000     0.975000000
H    -1.558000000     4.420000000     2.476000000
O     4.071000000     6.449000000     0.651000000
H     4.390000000     6.780000000    -0.188000000
H     3.413000000     5.795000000     0.415000000
O    -3.590000000     2.638000000    -0.429000000
H    -4.384000000     2.516000000     0.092000000
H    -2.877000000     2.596000000     0.209000000
O     2.250000000    -2.833000000     4.615000000
H     2.138000000    -2.537000000     5.519000000
H     2.990000000    -2.322000000     4.286000000
O     2.509000000     0.661000000     2.404000000
H     2.457000000     1.285000000     3.128000000
H     1.603000000     0.550000000     2.118000000
O    -1.263000000     6.035000000    -1.866000000
H    -0.724000000     5.283000000    -1.620000000
H    -0.678000000     6.588000000    -2.385000000
O     3.075000000    -1.143000000    -5.782000000
H     2.200000000    -1.199000000    -5.398000000
H     3.469000000    -0.375000000    -5.368000000
O    -0.639000000     3.808000000     3.870000000
H    -0.558000000     4.587000000     4.421000000
H    -0.672000000     3.079000000     4.489000000
O    -1.896000000     1.686000000    -6.971000000
H    -1.840000000     2.029000000    -6.079000000
H    -1.298000000     0.939000000    -6.979000000
O     2.641000000    -6.164000000     1.394000000
H     2.441000000    -6.880000000     1.996000000
H     2.320000000    -5.380000000     1.839000000
O    -4.765000000     6.473000000     0.965000000
H    -4.840000000     7.383000000     0.677000000
H    -4.413000000     6.009000000     0.205000000
O     3.975000000    -1.927000000    -3.019000000
H     4.911000000    -2.011000000    -3.204000000
H     3.640000000    -2.822000000    -3.074000000
O    -0.872000000    -6.254000000    -0.295000000
H    -1.741000000    -5.857000000    -0.349000000
H    -0.950000000    -6.908000000     0.399000000
O     1.406000000    -3.914000000     2.487000000
H     0.546000000    -4.280000000     2.693000000
H     1.605000000    -3.339000000     3.225000000
O     1.198000000    -6.679000000    -3.238000000
H     0.933000000    -5.922000000    -2.715000000
H     2.018000000    -6.970000000    -2.838000000
O    -3.848000000     4.145000000    -4.193000000
H    -3.605000000     4.777000000    -4.870000000
H    -4.742000000     4.386000000    -3.950000000
O     4.544000000     3.876000000    -2.790000000
H     3.777000000     4.146000000    -3.297000000
H     4.181000000     3.500000000    -1.989000000
O    -2.799000000    -1.700000000    -0.352000000
H    -3.122000000    -1.069000000     0.292000000
H    -1.850000000    -1.706000000    -0.226000000
O     3.323000000    -7.212000000    -1.233000000
H     2.959000000    -6.715000000    -0.501000000
H     3.340000000    -8.118000000    -0.922000000
O     1.445000000     5.444000000     0.050000000
H     1.015000000     6.231000000     0.384000000
H     0.741000000     4.800000000    -0.025000000
O     4.338000000    -1.069000000     3.844000000
H     3.721000000    -0.632000000     3.257000000
H     5.189000000    -0.963000000     3.419000000
O    -1.080000000    -4.117000000    -3.281000000
H    -1.497000000    -3.278000000    -3.477000000
H    -0.450000000    -3.916000000    -2.590000000
O     5.501000000    -4.792000000     2.747000000
H     5.375000000    -5.662000000     2.369000000
H     4.985000000    -4.211000000     2.187000000
O     3.577000000     0.860000000    -2.017000000
H     2.855000000     1.175000000    -2.562000000
H     3.713000000    -0.045000000    -2.300000000
O     0.336000000    -0.260000000     4.855000000
H     1.211000000    -0.578000000     5.078000000
H    -0.171000000    -1.053000000     4.685000000
O    -1.544000000     2.691000000    -4.454000000
H    -1.058000000     2.799000000    -3.636000000
H    -2.412000000     3.049000000    -4.264000000
O    -4.864000000    -1.666000000    -2.349000000
H    -5.481000000    -2.396000000    -2.403000000
H    -4.075000000    -2.048000000    -1.965000000
O     1.942000000     4.983000000    -2.614000000
H     1.340000000     4.245000000    -2.516000000
H     1.933000000     5.415000000    -1.760000000
O    -3.715000000    -0.113000000     3.973000000
H    -4.314000000     0.369000000     3.403000000
H    -3.857000000     0.261000000     4.842000000
O     0.154000000     6.097000000    -4.906000000
H     0.458000000     5.275000000    -4.520000000
H     0.919000000     6.441000000    -5.368000000
O     1.798000000     1.897000000    -4.085000000
H     1.170000000     2.568000000    -3.818000000
H     1.257000000     1.143000000    -4.319000000
O    -2.241000000    -2.275000000     4.197000000
H    -2.689000000    -1.471000000     3.936000000
H    -1.931000000    -2.099000000     5.085000000
O     4.047000000    -2.927000000     1.039000000
H     4.152000000    -1.997000000     0.836000000
H     3.142000000    -3.124000000     0.800000000
O    -1.626000000     7.065000000     0.623000000
H    -1.900000000     6.229000000     1.001000000
H    -1.573000000     6.896000000    -0.317000000
O    -3.126000000    -4.839000000     0.131000000
H    -3.729000000    -4.612000000    -0.577000000
H    -2.988000000    -4.016000000     0.601000000
O    -3.623000000    -6.657000000     2.481000000
H    -3.357000000    -6.370000000     1.607000000
H    -3.009000000    -7.359000000     2.699000000
O     0.998000000    -4.570000000    -1.165000000
H     0.305000000    -5.036000000    -0.698000000
H     1.655000000    -4.382000000    -0.494000000
O     5.676000000    -4.174000000    -1.131000000
H     6.000000000    -3.294000000    -1.323000000
H     5.411000000    -4.136000000    -0.212000000
O    -3.794000000     5.288000000    -1.514000000
H    -2.867000000     5.091000000    -1.381000000
H    -4.166000000     4.472000000    -1.850000000
