158
-3039.68360
C     0.715000000     0.676000000    -1.138000000
H     1.298000000     1.038000000    -1.982000000
C     0.954000000    -0.598000000    -0.597000000
H     1.717000000    -1.182000000    -1.107000000
C     0.298000000    -1.129000000     0.449000000
H     0.547000000    -2.129000000     0.867000000
C    -0.725000000    -0.360000000     1.017000000
H    -1.195000000    -0.812000000     1.887000000
C    -1.071000000     0.886000000     0.493000000
H    -1.818000000     1.421000000     1.075000000
C    -0.395000000     1.464000000    -0.647000000
C    -0.774000000     2.827000000    -1.181000000
O    -0.115000000     3.398000000    -2.024000000
O    -1.802000000     3.398000000    -0.847000000
O    -0.606000000     0.846000000    -5.903000000
H    -0.957000000     0.928000000    -6.790000000
H    -1.101000000     0.124000000    -5.516000000
O     2.948000000     6.090000000    -4.656000000
H     2.187000000     5.545000000    -4.450000000
H     3.683000000     5.641000000    -4.238000000
O     3.339000000    -6.000000000     3.840000000
H     3.728000000    -5.158000000     3.601000000
H     2.814000000    -5.808000000     4.618000000
O    -4.138000000     0.374000000    -3.471000000
H    -3.998000000     1.225000000    -3.055000000
H    -3.346000000    -0.124000000    -3.269000000
O    -1.975000000     1.226000000     4.852000000
H    -2.776000000     1.724000000     4.691000000
H    -1.586000000     1.639000000     5.624000000
O     0.421000000     0.428000000     3.764000000
H    -0.412000000     0.565000000     4.215000000
H     0.178000000     0.030000000     2.928000000
O     4.345000000    -0.079000000    -3.062000000
H     4.192000000    -0.058000000    -2.118000000
H     4.460000000     0.840000000    -3.307000000
O    -1.387000000     4.152000000     1.704000000
H    -1.672000000     3.889000000     0.829000000
H    -0.633000000     3.593000000     1.889000000
O    -4.164000000     2.335000000    -1.647000000
H    -4.914000000     2.912000000    -1.795000000
H    -3.512000000     2.893000000    -1.224000000
O     2.337000000    -2.395000000     3.904000000
H     3.166000000    -2.758000000     3.593000000
H     2.511000000    -1.461000000     4.016000000
O     3.737000000     0.234000000    -0.334000000
H     2.798000000     0.058000000    -0.270000000
H     4.086000000    -0.015000000     0.522000000
O    -0.247000000     6.648000000    -3.820000000
H    -0.958000000     6.196000000    -4.275000000
H     0.125000000     7.233000000    -4.480000000
O     2.161000000     8.065000000    -2.321000000
H     1.707000000     7.232000000    -2.449000000
H     1.462000000     8.719000000    -2.308000000
O    -5.354000000     5.132000000     1.901000000
H    -6.131000000     5.613000000     2.187000000
H    -5.509000000     4.957000000     0.973000000
O     2.409000000     0.654000000    -6.191000000
H     1.567000000     1.051000000    -6.413000000
H     2.180000000    -0.175000000    -5.771000000
O     0.999000000     2.715000000     2.487000000
H     1.275000000     3.184000000     3.274000000
H     0.869000000     1.813000000     2.780000000
O     2.696000000    -5.508000000    -0.238000000
H     2.602000000    -6.366000000     0.175000000
H     1.812000000    -5.140000000    -0.230000000
O    -4.033000000     6.150000000    -0.615000000
H    -4.464000000     6.865000000    -0.147000000
H    -3.118000000     6.423000000    -0.679000000
O     1.945000000    -1.472000000    -4.145000000
H     1.608000000    -1.941000000    -3.381000000
H     2.722000000    -1.016000000    -3.823000000
O     2.350000000    -4.371000000     5.786000000
H     2.240000000    -4.141000000     6.709000000
H     2.287000000    -3.537000000     5.322000000
O    -2.463000000    -6.025000000    -0.163000000
H    -3.365000000    -6.082000000     0.153000000
H    -2.167000000    -6.934000000    -0.211000000
O     0.636000000    -4.116000000     2.540000000
H     0.235000000    -4.560000000     3.287000000
H     1.259000000    -3.504000000     2.930000000
O    -2.972000000     6.096000000     3.214000000
H    -2.342000000     5.608000000     2.684000000
H    -3.807000000     5.982000000     2.760000000
O    -1.688000000    -1.978000000    -1.780000000
H    -1.142000000    -1.674000000    -1.054000000
H    -1.405000000    -2.879000000    -1.931000000
O    -3.815000000     3.409000000     4.140000000
H    -3.250000000     3.753000000     3.449000000
H    -4.144000000     4.186000000     4.591000000
O     1.582000000    -5.821000000    -3.346000000
H     2.211000000    -5.389000000    -3.924000000
H     2.091000000    -6.051000000    -2.569000000
O     2.812000000     4.268000000     0.992000000
H     2.477000000     5.128000000     1.245000000
H     2.267000000     3.647000000     1.475000000
O     4.486000000    -0.227000000     2.291000000
H     4.235000000     0.460000000     2.908000000
H     5.386000000    -0.448000000     2.531000000
O     1.049000000    -3.453000000    -2.390000000
H     1.294000000    -4.224000000    -2.902000000
H     0.857000000    -3.797000000    -1.517000000
O     4.528000000    -3.496000000     2.718000000
H     5.386000000    -3.919000000     2.690000000
H     4.614000000    -2.742000000     2.135000000
O    -6.057000000     4.546000000    -1.701000000
H    -6.769000000     5.139000000    -1.942000000
H    -5.391000000     5.115000000    -1.315000000
O     5.022000000     2.269000000    -3.831000000
H     5.175000000     3.129000000    -3.439000000
H     4.578000000     2.459000000    -4.658000000
O     0.769000000     5.906000000     2.307000000
H     0.562000000     6.591000000     1.671000000
H    -0.034000000     5.388000000     2.370000000
O     2.592000000     0.337000000     5.243000000
H     3.051000000     1.170000000     5.136000000
H     1.740000000     0.479000000     4.831000000
O    -0.133000000    -5.362000000     5.153000000
H     0.489000000    -4.724000000     5.503000000
H    -0.987000000    -5.057000000     5.458000000
O    -2.159000000     4.318000000    -3.736000000
H    -1.263000000     3.982000000    -3.710000000
H    -2.588000000     3.916000000    -2.981000000
O     2.455000000     4.605000000    -1.935000000
H     1.541000000     4.423000000    -2.150000000
H     2.559000000     4.285000000    -1.039000000
O    -5.209000000     0.185000000    -0.123000000
H    -5.309000000    -0.611000000    -0.645000000
H    -4.703000000     0.776000000    -0.682000000
O    -0.569000000     5.158000000    -6.446000000
H    -0.231000000     4.489000000    -5.850000000
H     0.039000000     5.148000000    -7.186000000
O     0.382000000     3.334000000    -4.610000000
H     0.327000000     3.530000000    -3.675000000
H     0.299000000     2.381000000    -4.660000000
O    -5.973000000     0.928000000     2.507000000
H    -5.767000000     0.932000000     1.573000000
H    -6.155000000     1.845000000     2.717000000
O     5.084000000    -4.509000000    -1.176000000
H     4.849000000    -3.936000000    -1.905000000
H     4.250000000    -4.718000000    -0.756000000
O    -0.164000000    -7.761000000     1.406000000
H    -0.550000000    -7.160000000     2.042000000
H    -0.810000000    -8.462000000     1.316000000
O    -1.001000000     6.015000000    -1.039000000
H    -1.290000000     5.105000000    -1.102000000
H    -0.907000000     6.300000000    -1.948000000
O    -0.784000000     7.817000000     1.057000000
H    -1.000000000     8.722000000     0.831000000
H    -0.919000000     7.328000000     0.245000000
O    -0.094000000    -4.599000000    -0.211000000
H    -0.859000000    -5.173000000    -0.256000000
H    -0.021000000    -4.368000000     0.715000000
O    -2.785000000    -1.314000000     6.164000000
H    -2.359000000    -0.639000000     5.637000000
H    -3.607000000    -1.492000000     5.707000000
O     4.757000000    -2.726000000    -3.486000000
H     5.705000000    -2.829000000    -3.566000000
H     4.629000000    -1.786000000    -3.357000000
