158
-3019.35734
C     0.526000000     1.035000000    -0.905000000
H     1.126000000     1.720000000    -1.499000000
C     0.786000000    -0.337000000    -1.006000000
H     1.597000000    -0.726000000    -1.618000000
C     0.211000000    -1.187000000    -0.101000000
H     0.430000000    -2.245000000    -0.024000000
C    -0.761000000    -0.710000000     0.750000000
H    -1.320000000    -1.474000000     1.285000000
C    -0.988000000     0.663000000     0.871000000
H    -1.704000000     1.086000000     1.571000000
C    -0.271000000     1.554000000     0.100000000
C    -0.421000000     2.991000000     0.311000000
O    -0.336000000     3.832000000    -0.543000000
O    -0.279000000     3.364000000     1.452000000
O    -2.004000000    -8.013000000    -1.400000000
H    -1.867000000    -7.114000000    -1.102000000
H    -1.265000000    -8.188000000    -1.982000000
O     1.295000000     7.186000000     3.812000000
H     0.595000000     6.725000000     3.351000000
H     1.288000000     8.067000000     3.438000000
O     3.661000000     6.571000000    -1.477000000
H     3.222000000     5.743000000    -1.671000000
H     3.804000000     6.974000000    -2.333000000
O    -4.632000000    -1.510000000    -0.435000000
H    -3.941000000    -0.905000000    -0.167000000
H    -4.232000000    -2.377000000    -0.364000000
O    -1.094000000    -1.388000000     4.419000000
H    -1.346000000    -2.292000000     4.227000000
H    -1.736000000    -0.856000000     3.949000000
O     4.701000000     0.802000000     0.902000000
H     5.615000000     0.560000000     1.048000000
H     4.225000000     0.380000000     1.617000000
O     1.624000000    -5.808000000    -0.356000000
H     0.902000000    -5.676000000    -0.971000000
H     2.364000000    -5.351000000    -0.755000000
O    -3.267000000     3.124000000    -2.087000000
H    -3.650000000     3.311000000    -1.229000000
H    -2.797000000     3.925000000    -2.318000000
O    -0.787000000     5.778000000     2.557000000
H    -0.451000000     4.984000000     2.141000000
H    -1.710000000     5.590000000     2.723000000
O    -5.196000000     2.958000000     3.054000000
H    -5.232000000     2.384000000     2.288000000
H    -6.108000000     3.045000000     3.331000000
O     0.707000000    -3.337000000     2.441000000
H     0.856000000    -2.515000000     2.907000000
H     1.584000000    -3.650000000     2.220000000
O     1.013000000     1.975000000     3.177000000
H     0.401000000     1.616000000     3.820000000
H     0.486000000     2.582000000     2.658000000
O     0.090000000     0.239000000    -5.615000000
H     0.028000000    -0.708000000    -5.489000000
H    -0.079000000     0.608000000    -4.748000000
O     3.935000000    -1.128000000     4.141000000
H     4.801000000    -1.403000000     3.838000000
H     3.448000000    -0.946000000     3.337000000
O    -4.044000000    -2.962000000    -3.163000000
H    -4.712000000    -2.564000000    -2.603000000
H    -3.394000000    -2.271000000    -3.288000000
O    -0.525000000    -6.298000000    -4.637000000
H     0.080000000    -5.567000000    -4.510000000
H    -0.352000000    -6.883000000    -3.900000000
O     2.166000000    -3.213000000     4.945000000
H     2.236000000    -4.168000000     4.912000000
H     2.966000000    -2.900000000     4.523000000
O     0.535000000     6.414000000     0.115000000
H     0.509000000     6.311000000     1.066000000
H     0.428000000     5.525000000    -0.225000000
O    -0.621000000    -2.205000000    -4.756000000
H    -1.443000000    -2.615000000    -5.024000000
H     0.038000000    -2.890000000    -4.875000000
O    -3.341000000     5.059000000     3.568000000
H    -4.097000000     4.502000000     3.382000000
H    -3.685000000     5.745000000     4.140000000
O    -1.399000000    -5.022000000     1.696000000
H    -1.325000000    -5.715000000     2.352000000
H    -0.702000000    -4.405000000     1.919000000
O     3.104000000    -3.921000000     1.817000000
H     3.847000000    -4.208000000     2.348000000
H     3.176000000    -4.430000000     1.009000000
O     3.942000000     3.684000000    -4.844000000
H     3.954000000     4.641000000    -4.811000000
H     3.034000000     3.463000000    -5.051000000
O    -3.121000000     7.298000000     0.141000000
H    -3.746000000     7.946000000     0.466000000
H    -2.264000000     7.696000000     0.290000000
O    -3.771000000     6.669000000    -2.640000000
H    -4.051000000     6.797000000    -1.734000000
H    -3.033000000     6.063000000    -2.580000000
O     2.914000000     3.011000000     1.312000000
H     2.156000000     2.463000000     1.513000000
H     3.457000000     2.469000000     0.740000000
O    -1.422000000     3.113000000     4.830000000
H    -0.974000000     3.893000000     5.158000000
H    -1.914000000     3.422000000     4.069000000
O     4.286000000     5.391000000     1.437000000
H     3.976000000     5.999000000     0.765000000
H     3.789000000     4.588000000     1.282000000
O    -0.913000000    -5.062000000    -1.310000000
H    -1.166000000    -4.322000000    -1.862000000
H    -1.466000000    -4.981000000    -0.533000000
O    -0.046000000     0.805000000     5.589000000
H    -0.740000000     1.463000000     5.608000000
H    -0.502000000    -0.020000000     5.425000000
O     2.334000000     4.210000000     4.553000000
H     1.989000000     3.416000000     4.146000000
H     2.380000000     4.845000000     3.838000000
O    -2.182000000    -0.898000000    -2.500000000
H    -1.543000000    -0.985000000    -3.207000000
H    -1.666000000    -0.622000000    -1.743000000
O     3.586000000    -4.348000000    -2.167000000
H     3.588000000    -4.468000000    -3.117000000
H     4.423000000    -3.924000000    -1.978000000
O     2.975000000     0.089000000    -5.569000000
H     2.110000000     0.436000000    -5.788000000
H     3.439000000     0.831000000    -5.181000000
O    -1.235000000     1.697000000    -3.526000000
H    -1.952000000     1.583000000    -4.149000000
H    -1.635000000     2.141000000    -2.778000000
O    -2.695000000    -3.231000000     5.742000000
H    -3.085000000    -3.149000000     4.872000000
H    -3.199000000    -2.627000000     6.288000000
O    -3.271000000     4.585000000     0.180000000
H    -2.426000000     4.142000000     0.262000000
H    -3.067000000     5.513000000     0.297000000
O    -3.518000000    -4.181000000     0.029000000
H    -4.232000000    -4.794000000     0.207000000
H    -2.793000000    -4.495000000     0.570000000
O     2.272000000    -0.195000000     2.227000000
H     2.157000000    -0.348000000     1.289000000
H     1.612000000     0.463000000     2.445000000
O    -5.174000000     1.288000000     0.465000000
H    -5.669000000     1.406000000    -0.345000000
H    -5.412000000     0.411000000     0.766000000
O     4.002000000     2.105000000    -1.254000000
H     4.784000000     2.657000000    -1.269000000
H     4.244000000     1.361000000    -0.703000000
O     4.737000000    -2.353000000    -5.427000000
H     5.028000000    -2.630000000    -4.558000000
H     3.987000000    -1.783000000    -5.259000000
O     0.634000000     3.174000000    -5.163000000
H     0.254000000     2.590000000    -4.506000000
H     0.811000000     3.986000000    -4.687000000
O    -0.096000000     8.182000000    -2.148000000
H     0.022000000     7.481000000    -1.507000000
H    -0.092000000     7.735000000    -2.995000000
O    -3.857000000    -2.997000000     3.198000000
H    -3.529000000    -3.465000000     2.431000000
H    -4.521000000    -2.401000000     2.850000000
O    -1.478000000     5.068000000    -2.560000000
H    -0.882000000     4.719000000    -1.897000000
H    -0.946000000     5.130000000    -3.353000000
O     1.982000000     4.176000000    -2.014000000
H     2.615000000     3.483000000    -1.826000000
H     1.181000000     3.895000000    -1.573000000
O    -3.082000000     0.405000000     3.703000000
H    -3.432000000     0.575000000     4.578000000
H    -3.321000000     1.180000000     3.195000000
