158
-3033.82520
C     0.849000000     0.364000000    -1.172000000
H     1.370000000     0.587000000    -2.100000000
C     0.845000000    -0.925000000    -0.621000000
H     1.373000000    -1.781000000    -1.032000000
C     0.020000000    -1.140000000     0.498000000
H    -0.043000000    -2.166000000     0.918000000
C    -0.625000000    -0.130000000     1.141000000
H    -1.273000000    -0.357000000     1.984000000
C    -0.560000000     1.178000000     0.608000000
H    -1.113000000     1.939000000     1.151000000
C     0.224000000     1.419000000    -0.548000000
C     0.329000000     2.834000000    -1.092000000
O     0.931000000     3.022000000    -2.156000000
O    -0.199000000     3.709000000    -0.471000000
O     1.438000000     4.879000000    -4.003000000
H     1.382000000     4.246000000    -3.287000000
H     2.221000000     4.621000000    -4.490000000
O    -2.367000000    -3.390000000     2.416000000
H    -2.691000000    -2.967000000     1.621000000
H    -2.525000000    -2.750000000     3.109000000
O     4.724000000     0.224000000     3.123000000
H     4.611000000     1.047000000     3.598000000
H     4.103000000     0.279000000     2.397000000
O     4.135000000    -2.916000000    -2.312000000
H     4.784000000    -2.560000000    -1.704000000
H     4.448000000    -3.800000000    -2.505000000
O    -0.462000000     2.649000000    -4.714000000
H    -0.045000000     1.828000000    -4.451000000
H    -0.041000000     3.316000000    -4.172000000
O    -2.087000000     4.999000000     1.265000000
H    -1.416000000     4.509000000     0.790000000
H    -2.392000000     5.657000000     0.639000000
O     3.177000000    -2.777000000     5.569000000
H     2.524000000    -2.143000000     5.274000000
H     3.922000000    -2.646000000     4.982000000
O     1.304000000    -5.321000000     1.425000000
H     0.995000000    -4.712000000     2.095000000
H     1.967000000    -4.829000000     0.941000000
O     3.421000000     2.841000000     0.347000000
H     3.677000000     2.987000000    -0.564000000
H     3.741000000     3.614000000     0.812000000
O    -4.020000000     4.938000000     3.421000000
H    -4.442000000     5.677000000     2.983000000
H    -3.331000000     4.664000000     2.816000000
O    -1.480000000    -1.448000000    -3.249000000
H    -1.513000000    -1.875000000    -2.393000000
H    -2.050000000    -0.684000000    -3.158000000
O    -4.729000000    -2.575000000    -0.109000000
H    -4.720000000    -1.645000000    -0.338000000
H    -5.657000000    -2.808000000    -0.096000000
O     4.320000000    -6.921000000     0.901000000
H     3.943000000    -6.103000000     0.577000000
H     3.681000000    -7.591000000     0.660000000
O    -4.365000000     0.188000000    -0.600000000
H    -3.654000000     0.425000000    -1.195000000
H    -5.068000000     0.804000000    -0.808000000
O     1.715000000     6.020000000    -0.974000000
H     2.473000000     5.692000000    -0.489000000
H     1.127000000     5.267000000    -1.037000000
O    -0.461000000     5.086000000     3.721000000
H     0.120000000     5.050000000     2.961000000
H    -1.335000000     5.206000000     3.350000000
O     0.337000000    -7.909000000     1.448000000
H     0.440000000    -6.961000000     1.370000000
H    -0.610000000    -8.046000000     1.475000000
O    -2.766000000    -5.176000000     4.670000000
H    -2.613000000    -4.842000000     3.786000000
H    -3.603000000    -5.637000000     4.610000000
O     4.100000000     4.448000000    -1.935000000
H     4.578000000     4.288000000    -2.749000000
H     3.181000000     4.484000000    -2.200000000
O     2.022000000     7.162000000     2.846000000
H     2.117000000     7.932000000     2.285000000
H     2.321000000     6.432000000     2.304000000
O    -3.362000000     2.230000000     5.935000000
H    -3.944000000     1.922000000     5.241000000
H    -2.561000000     1.719000000     5.821000000
O     3.457000000     7.154000000    -3.293000000
H     3.152000000     7.660000000    -2.540000000
H     2.661000000     6.778000000    -3.668000000
O     0.502000000    -0.142000000    -4.681000000
H    -0.158000000    -0.347000000    -4.019000000
H     1.121000000    -0.871000000    -4.635000000
O    -2.962000000     0.880000000    -2.985000000
H    -2.546000000     1.690000000    -2.691000000
H    -3.575000000     1.158000000    -3.665000000
O    -0.631000000     6.836000000    -4.999000000
H     0.042000000     7.068000000    -5.640000000
H    -0.227000000     6.151000000    -4.467000000
O     1.642000000    -1.162000000     4.337000000
H     1.842000000    -0.382000000     3.820000000
H     0.803000000    -0.964000000     4.753000000
O     1.109000000     2.345000000     3.766000000
H     1.086000000     3.242000000     3.432000000
H     1.897000000     1.965000000     3.378000000
O     1.180000000     4.354000000     1.632000000
H     1.994000000     3.889000000     1.435000000
H     0.688000000     4.333000000     0.811000000
O    -1.317000000    -5.923000000    -2.227000000
H    -1.751000000    -5.801000000    -1.383000000
H    -0.386000000    -5.808000000    -2.036000000
O    -4.853000000     4.818000000     0.087000000
H    -4.681000000     5.691000000    -0.266000000
H    -4.655000000     4.894000000     1.020000000
O    -4.692000000    -0.171000000     2.259000000
H    -5.002000000     0.707000000     2.482000000
H    -4.277000000    -0.068000000     1.403000000
O     0.623000000    -3.683000000    -4.443000000
H     0.639000000    -4.425000000    -5.047000000
H    -0.306000000    -3.539000000    -4.264000000
O     2.252000000    -6.562000000     3.867000000
H     2.199000000    -6.164000000     2.998000000
H     1.353000000    -6.823000000     4.066000000
O    -3.373000000     4.147000000    -4.215000000
H    -2.584000000     4.079000000    -4.753000000
H    -3.056000000     4.076000000    -3.315000000
O    -2.753000000     3.595000000    -1.427000000
H    -1.968000000     3.785000000    -0.912000000
H    -3.477000000     3.907000000    -0.884000000
O    -3.285000000    -1.290000000     4.311000000
H    -3.797000000    -0.856000000     3.628000000
H    -3.939000000    -1.715000000     4.866000000
O    -2.510000000    -5.398000000     0.335000000
H    -2.173000000    -4.706000000     0.903000000
H    -2.658000000    -6.139000000     0.922000000
O     3.500000000    -4.006000000     0.296000000
H     4.029000000    -3.423000000     0.841000000
H     3.466000000    -3.571000000    -0.557000000
O    -4.998000000    -5.038000000    -1.347000000
H    -4.298000000    -5.470000000    -0.859000000
H    -4.969000000    -4.128000000    -1.051000000
O    -0.874000000    -1.614000000     5.556000000
H    -0.890000000    -1.577000000     6.512000000
H    -1.789000000    -1.506000000     5.296000000
O     4.910000000     0.591000000    -3.401000000
H     5.286000000     0.845000000    -2.558000000
H     5.369000000    -0.216000000    -3.634000000
O     2.800000000    -2.123000000    -4.669000000
H     3.339000000    -2.164000000    -3.879000000
H     2.001000000    -2.597000000    -4.439000000
O     2.790000000     1.819000000    -4.972000000
H     1.929000000     1.470000000    -4.741000000
H     3.394000000     1.387000000    -4.367000000
O     0.609000000    -3.522000000     3.336000000
H     1.090000000    -2.769000000     3.678000000
H    -0.235000000    -3.491000000     3.785000000
O     0.752000000     8.384000000    -1.979000000
H     1.111000000     7.603000000    -1.559000000
H     0.025000000     8.058000000    -2.509000000
O     3.401000000     4.554000000    -6.094000000
H     3.631000000     3.669000000    -5.814000000
H     4.101000000     4.805000000    -6.696000000
O    -0.730000000     1.656000000     5.988000000
H    -0.449000000     2.393000000     5.446000000
H    -0.252000000     0.905000000     5.638000000
O     2.527000000     0.787000000     1.784000000
H     2.805000000     1.521000000     1.237000000
H     1.811000000     0.381000000     1.296000000
