158
-3037.46976
C     0.337000000    -1.332000000     0.625000000
H     0.623000000    -2.285000000     1.061000000
C     0.720000000    -0.928000000    -0.674000000
H     1.156000000    -1.650000000    -1.359000000
C     0.380000000     0.350000000    -1.113000000
H     0.606000000     0.599000000    -2.122000000
C    -0.355000000     1.248000000    -0.310000000
H    -0.723000000     2.176000000    -0.740000000
C    -0.707000000     0.889000000     0.992000000
H    -1.201000000     1.647000000     1.595000000
C    -0.221000000    -0.338000000     1.520000000
C    -0.597000000    -0.798000000     2.918000000
O    -1.388000000    -0.253000000     3.578000000
O     0.001000000    -1.771000000     3.305000000
O    -2.149000000    -0.438000000     8.900000000
H    -2.411000000    -0.281000000     7.993000000
H    -2.563000000     0.269000000     9.395000000
O     3.796000000    -0.125000000    -1.605000000
H     4.301000000     0.488000000    -2.138000000
H     3.507000000    -0.797000000    -2.223000000
O     1.783000000     3.563000000     5.065000000
H     0.917000000     3.503000000     4.661000000
H     2.248000000     2.787000000     4.752000000
O     0.446000000    -6.742000000    -2.363000000
H     0.125000000    -6.067000000    -1.765000000
H     0.582000000    -6.283000000    -3.192000000
O    -1.059000000     2.363000000     7.660000000
H    -1.798000000     2.185000000     8.242000000
H    -1.209000000     1.798000000     6.903000000
O    -0.470000000     5.048000000     0.098000000
H    -0.014000000     4.658000000    -0.648000000
H     0.228000000     5.422000000     0.636000000
O    -0.756000000    -5.544000000     6.285000000
H    -1.058000000    -5.144000000     5.470000000
H    -1.534000000    -5.566000000     6.843000000
O    -2.095000000    -4.625000000     4.096000000
H    -1.356000000    -4.619000000     3.487000000
H    -2.840000000    -4.908000000     3.565000000
O    -2.282000000    -0.952000000    -1.033000000
H    -1.599000000    -0.344000000    -0.749000000
H    -2.991000000    -0.388000000    -1.341000000
O    -1.959000000    -2.508000000    -3.379000000
H    -1.306000000    -2.054000000    -3.912000000
H    -2.090000000    -1.936000000    -2.622000000
O     4.006000000    -3.932000000    -1.894000000
H     3.417000000    -4.420000000    -1.319000000
H     4.745000000    -3.694000000    -1.334000000
O    -3.861000000     0.858000000    -2.216000000
H    -3.443000000     1.594000000    -1.770000000
H    -4.571000000     1.255000000    -2.720000000
O     3.031000000     1.347000000     0.513000000
H     3.482000000     0.817000000     1.171000000
H     3.015000000     0.795000000    -0.268000000
O    -3.356000000     3.886000000    -3.124000000
H    -4.305000000     3.991000000    -3.053000000
H    -2.999000000     4.724000000    -2.832000000
O     1.810000000    -2.293000000     5.257000000
H     1.266000000    -2.229000000     4.472000000
H     1.426000000    -1.663000000     5.867000000
O     2.141000000     1.246000000    -4.250000000
H     3.093000000     1.294000000    -4.166000000
H     1.942000000     0.311000000    -4.185000000
O    -0.148000000     2.804000000     3.466000000
H    -0.577000000     2.026000000     3.821000000
H    -0.768000000     3.146000000     2.822000000
O     4.254000000    -3.828000000     2.263000000
H     3.804000000    -4.474000000     1.719000000
H     4.778000000    -3.318000000     1.646000000
O    -3.795000000    -0.790000000     2.573000000
H    -3.816000000    -1.467000000     1.896000000
H    -2.946000000    -0.904000000     2.999000000
O     5.061000000    -2.420000000     0.162000000
H     4.663000000    -1.620000000    -0.182000000
H     6.003000000    -2.270000000     0.087000000
O     3.815000000    -1.010000000     3.000000000
H     3.863000000    -1.798000000     2.458000000
H     3.534000000    -1.326000000     3.858000000
O    -0.030000000    -4.399000000     2.404000000
H    -0.045000000    -3.455000000     2.561000000
H     0.837000000    -4.677000000     2.700000000
O    -4.116000000    -1.920000000     6.855000000
H    -4.084000000    -2.863000000     7.017000000
H    -3.539000000    -1.787000000     6.103000000
O    -1.569000000    -2.422000000     5.564000000
H    -1.144000000    -1.774000000     5.002000000
H    -1.813000000    -3.131000000     4.969000000
O    -2.283000000     4.001000000     1.934000000
H    -1.888000000     4.716000000     1.436000000
H    -2.832000000     3.540000000     1.299000000
O     4.547000000     2.109000000    -3.599000000
H     4.871000000     2.212000000    -4.494000000
H     4.746000000     2.944000000    -3.175000000
O     0.234000000     2.933000000    -3.843000000
H    -0.544000000     2.378000000    -3.799000000
H     0.954000000     2.324000000    -4.007000000
O     2.087000000     3.526000000     1.892000000
H     1.549000000     3.249000000     2.634000000
H     2.033000000     2.799000000     1.272000000
O     0.372000000    -4.718000000    -4.693000000
H     0.418000000    -3.762000000    -4.708000000
H     1.178000000    -5.003000000    -5.124000000
O    -1.501000000     1.069000000    -4.559000000
H    -2.154000000     1.757000000    -4.682000000
H    -1.627000000     0.483000000    -5.305000000
O     1.279000000     4.810000000    -1.919000000
H     1.943000000     4.324000000    -1.430000000
H     1.065000000     4.243000000    -2.661000000
O    -2.122000000     0.736000000     5.830000000
H    -1.634000000     0.319000000     5.121000000
H    -2.982000000     0.922000000     5.453000000
O     2.314000000    -2.508000000    -5.609000000
H     2.461000000    -3.279000000    -6.157000000
H     1.387000000    -2.302000000    -5.729000000
O     3.223000000    -6.302000000    -3.193000000
H     3.268000000    -5.402000000    -2.872000000
H     2.957000000    -6.217000000    -4.109000000
O    -4.357000000     2.130000000     1.588000000
H    -4.055000000     1.485000000     2.227000000
H    -4.990000000     2.664000000     2.068000000
O     2.539000000    -5.226000000     0.026000000
H     2.717000000    -6.161000000     0.131000000
H     1.590000000    -5.174000000    -0.086000000
O    -0.258000000    -4.999000000    -0.318000000
H    -0.376000000    -4.794000000     0.610000000
H    -1.061000000    -4.688000000    -0.736000000
O    -2.088000000     6.115000000    -1.878000000
H    -1.508000000     6.715000000    -2.348000000
H    -1.570000000     5.819000000    -1.130000000
O     2.563000000     4.122000000    -5.544000000
H     1.852000000     4.291000000    -6.162000000
H     2.301000000     3.321000000    -5.090000000
O    -2.363000000    -4.701000000    -1.837000000
H    -2.266000000    -5.212000000    -2.641000000
H    -2.093000000    -3.816000000    -2.082000000
O     4.137000000    -1.931000000    -3.587000000
H     3.550000000    -2.145000000    -4.312000000
H     4.036000000    -2.660000000    -2.974000000
O    -3.806000000    -2.829000000     0.272000000
H    -4.600000000    -2.771000000    -0.260000000
H    -3.121000000    -2.449000000    -0.279000000
O     3.689000000     3.540000000    -0.831000000
H     4.645000000     3.570000000    -0.862000000
H     3.491000000     2.805000000    -0.251000000
O    -4.434000000     1.244000000     4.352000000
H    -5.386000000     1.270000000     4.259000000
H    -4.171000000     0.437000000     3.909000000
O    -0.305000000     3.052000000    -6.992000000
H    -1.160000000     3.369000000    -7.284000000
H    -0.374000000     3.025000000    -6.037000000
O    -0.362000000    -2.704000000     7.953000000
H    -0.831000000    -2.160000000     8.586000000
H    -0.758000000    -2.485000000     7.109000000
O    -0.668000000    -1.768000000    -5.944000000
H    -1.262000000    -2.163000000    -6.582000000
H    -0.548000000    -0.870000000    -6.253000000
O    -4.260000000     5.375000000     3.556000000
H    -3.616000000     4.816000000     3.122000000
H    -4.969000000     5.462000000     2.919000000
