158
-2981.17623
C     0.539000000     0.719000000    -1.187000000
H     0.821000000     1.227000000    -2.105000000
C    -0.023000000    -0.537000000    -1.216000000
H    -0.153000000    -1.063000000    -2.158000000
C    -0.458000000    -1.124000000    -0.029000000
H    -0.796000000    -2.195000000     0.029000000
C    -0.321000000    -0.511000000     1.164000000
H    -0.571000000    -1.041000000     2.079000000
C     0.309000000     0.760000000     1.266000000
H     0.417000000     1.252000000     2.229000000
C     0.715000000     1.406000000     0.072000000
C     1.286000000     2.837000000     0.115000000
O     1.710000000     3.311000000    -0.923000000
O     1.458000000     3.397000000     1.195000000
O     1.191000000     3.518000000    -5.970000000
H     0.790000000     3.930000000    -5.204000000
H     0.657000000     3.813000000    -6.708000000
O     3.309000000    -0.588000000    -3.058000000
H     2.731000000     0.110000000    -2.749000000
H     4.137000000    -0.147000000    -3.246000000
O     0.292000000    -5.547000000    -1.449000000
H     0.919000000    -6.181000000    -1.102000000
H     0.740000000    -5.148000000    -2.194000000
O    -2.258000000    -4.329000000    -2.565000000
H    -1.506000000    -4.732000000    -2.131000000
H    -2.449000000    -4.909000000    -3.302000000
O     5.060000000    -0.547000000     3.337000000
H     4.792000000    -0.095000000     4.137000000
H     4.253000000    -0.937000000     3.001000000
O     1.253000000    -2.522000000     6.772000000
H     1.341000000    -2.553000000     5.820000000
H     0.501000000    -1.950000000     6.925000000
O     1.072000000     4.413000000    -3.229000000
H     0.124000000     4.547000000    -3.250000000
H     1.234000000     3.986000000    -2.388000000
O    -4.687000000    -1.876000000    -3.090000000
H    -3.857000000    -2.332000000    -2.956000000
H    -4.940000000    -2.099000000    -3.986000000
O     1.220000000    -6.612000000     2.327000000
H     1.422000000    -5.795000000     1.871000000
H     1.988000000    -7.164000000     2.182000000
O    -2.858000000    -7.282000000     1.065000000
H    -2.379000000    -6.543000000     1.439000000
H    -2.698000000    -7.220000000     0.123000000
O    -1.931000000    -7.217000000    -1.469000000
H    -2.250000000    -7.067000000    -2.359000000
H    -1.067000000    -6.806000000    -1.452000000
O    -1.193000000    -5.140000000     1.801000000
H    -1.637000000    -4.305000000     1.950000000
H    -0.275000000    -4.902000000     1.667000000
O    -5.576000000     0.350000000     1.085000000
H    -6.447000000     0.096000000     0.782000000
H    -5.020000000     0.270000000     0.309000000
O     3.365000000     5.324000000     0.176000000
H     3.096000000     5.367000000     1.093000000
H     2.842000000     4.613000000    -0.195000000
O     6.490000000     3.313000000     1.422000000
H     7.403000000     3.060000000     1.555000000
H     6.036000000     2.490000000     1.242000000
O     2.755000000     6.295000000    -4.631000000
H     2.388000000     5.615000000    -4.066000000
H     3.685000000     6.318000000    -4.406000000
O    -2.317000000     0.574000000    -5.486000000
H    -3.153000000     0.163000000    -5.707000000
H    -1.699000000    -0.156000000    -5.431000000
O     2.522000000    -2.426000000    -1.001000000
H     2.885000000    -3.223000000    -1.386000000
H     2.897000000    -1.716000000    -1.522000000
O     1.710000000     5.645000000     5.852000000
H     1.092000000     6.353000000     5.671000000
H     1.226000000     4.845000000     5.647000000
O     5.198000000    -0.781000000    -0.614000000
H     5.163000000    -1.694000000    -0.328000000
H     4.743000000    -0.776000000    -1.456000000
O     2.432000000    -1.483000000     1.935000000
H     2.073000000    -0.625000000     2.164000000
H     2.409000000    -1.504000000     0.978000000
O     5.351000000     2.292000000     4.799000000
H     4.807000000     2.490000000     5.561000000
H     4.754000000     2.358000000     4.054000000
O     1.250000000    -4.313000000     0.763000000
H     1.978000000    -3.695000000     0.691000000
H     0.807000000    -4.261000000    -0.084000000
O    -3.793000000    -0.302000000    -0.991000000
H    -2.981000000    -0.781000000    -0.826000000
H    -4.286000000    -0.865000000    -1.588000000
O     1.697000000    -1.900000000    -4.740000000
H     0.840000000    -1.473000000    -4.739000000
H     2.254000000    -1.320000000    -4.221000000
O     1.318000000    -2.805000000     3.945000000
H     0.433000000    -2.576000000     3.661000000
H     1.888000000    -2.214000000     3.453000000
O    -5.059000000    -5.907000000    -1.494000000
H    -4.827000000    -6.826000000    -1.622000000
H    -4.478000000    -5.428000000    -2.086000000
O     5.370000000     5.195000000     2.720000000
H     5.734000000     4.365000000     2.412000000
H     4.438000000     5.141000000     2.510000000
O    -0.626000000     4.883000000     1.584000000
H     0.012000000     4.172000000     1.514000000
H    -0.762000000     5.172000000     0.681000000
O     0.676000000     0.877000000    -5.102000000
H    -0.238000000     1.163000000    -5.104000000
H     1.179000000     1.684000000    -4.993000000
O    -5.177000000    -3.991000000     0.453000000
H    -4.965000000    -4.599000000    -0.256000000
H    -6.120000000    -3.850000000     0.373000000
O    -1.014000000     5.347000000    -1.076000000
H    -1.424000000     4.534000000    -1.370000000
H    -1.503000000     6.037000000    -1.524000000
O     1.425000000     6.634000000    -1.197000000
H     2.119000000     5.991000000    -1.055000000
H     0.613000000     6.141000000    -1.074000000
O    -1.697000000     1.915000000     3.625000000
H    -2.601000000     1.853000000     3.318000000
H    -1.760000000     1.820000000     4.576000000
O     0.508000000    -0.265000000     4.457000000
H     0.088000000    -0.177000000     5.313000000
H    -0.211000000    -0.197000000     3.829000000
O    -2.930000000     4.890000000     2.716000000
H    -3.073000000     3.956000000     2.872000000
H    -2.078000000     4.932000000     2.282000000
O    -2.183000000     2.213000000     0.051000000
H    -1.471000000     2.081000000    -0.576000000
H    -2.119000000     1.467000000     0.647000000
O     3.694000000     2.587000000     2.613000000
H     3.015000000     2.914000000     2.023000000
H     4.321000000     2.149000000     2.038000000
O     2.375000000     5.484000000     2.752000000
H     2.331000000     5.317000000     3.693000000
H     1.854000000     4.783000000     2.359000000
O     0.651000000     8.083000000     2.057000000
H    -0.228000000     7.924000000     2.402000000
H     1.085000000     7.231000000     2.105000000
O     0.017000000    -4.254000000    -4.957000000
H     0.903000000    -3.920000000    -4.817000000
H     0.053000000    -5.161000000    -4.656000000
O     3.095000000     2.508000000    -3.843000000
H     2.497000000     2.870000000    -3.189000000
H     3.110000000     3.162000000    -4.542000000
O     5.600000000     5.464000000    -1.504000000
H     5.676000000     6.418000000    -1.517000000
H     4.823000000     5.294000000    -0.971000000
O    -1.296000000    -2.000000000    -5.851000000
H    -0.941000000    -2.797000000    -5.457000000
H    -2.037000000    -2.302000000    -6.377000000
O     0.799000000     3.152000000     4.736000000
H     0.256000000     3.076000000     3.951000000
H     1.389000000     2.400000000     4.692000000
O    -3.853000000    -0.260000000     5.883000000
H    -3.158000000    -0.649000000     5.352000000
H    -3.393000000     0.306000000     6.503000000
O    -4.607000000    -2.027000000     2.590000000
H    -4.668000000    -2.813000000     2.047000000
H    -4.986000000    -1.333000000     2.051000000
O    -2.108000000    -1.992000000     4.002000000
H    -2.084000000    -2.664000000     4.683000000
H    -3.033000000    -1.926000000     3.765000000
