158
-3008.76792
C     0.703000000     0.642000000    -1.236000000
H     0.982000000     1.164000000    -2.149000000
C    -0.261000000    -0.380000000    -1.284000000
H    -0.550000000    -0.772000000    -2.255000000
C    -0.801000000    -0.898000000    -0.112000000
H    -1.639000000    -1.615000000    -0.096000000
C    -0.396000000    -0.422000000     1.129000000
H    -0.889000000    -0.871000000     1.987000000
C     0.564000000     0.585000000     1.204000000
H     0.697000000     0.961000000     2.215000000
C     1.112000000     1.181000000     0.028000000
C     2.174000000     2.181000000     0.225000000
O     2.324000000     2.973000000    -0.632000000
O     2.780000000     2.215000000     1.286000000
O     2.050000000     1.227000000    -5.172000000
H     2.225000000     2.132000000    -5.431000000
H     1.295000000     0.969000000    -5.701000000
O     2.554000000    -1.294000000    -3.767000000
H     2.404000000    -0.398000000    -4.069000000
H     3.324000000    -1.230000000    -3.202000000
O    -0.052000000    -5.659000000    -1.029000000
H     0.894000000    -5.784000000    -0.953000000
H    -0.229000000    -5.732000000    -1.967000000
O    -4.626000000    -5.034000000    -3.442000000
H    -4.620000000    -5.989000000    -3.380000000
H    -4.829000000    -4.855000000    -4.361000000
O     2.884000000     1.855000000     6.509000000
H     2.798000000     2.121000000     5.594000000
H     3.697000000     1.351000000     6.537000000
O     2.319000000     4.804000000    -2.446000000
H     1.451000000     5.112000000    -2.709000000
H     2.145000000     4.146000000    -1.773000000
O    -5.545000000    -2.596000000    -2.223000000
H    -5.419000000    -3.096000000    -3.029000000
H    -5.375000000    -3.225000000    -1.522000000
O     5.642000000     3.205000000     4.496000000
H     5.941000000     2.547000000     3.869000000
H     4.690000000     3.218000000     4.393000000
O    -3.575000000    -6.852000000     1.929000000
H    -3.113000000    -6.158000000     2.399000000
H    -3.561000000    -6.571000000     1.014000000
O    -2.608000000    -5.831000000    -0.308000000
H    -2.889000000    -6.384000000    -1.037000000
H    -1.652000000    -5.845000000    -0.353000000
O    -2.701000000    -4.324000000     3.006000000
H    -2.777000000    -3.382000000     2.852000000
H    -1.931000000    -4.587000000     2.502000000
O    -4.615000000    -0.124000000    -1.579000000
H    -4.171000000     0.207000000    -2.360000000
H    -4.954000000    -0.980000000    -1.842000000
O     5.122000000     2.418000000     0.044000000
H     4.785000000     2.128000000    -0.804000000
H     4.348000000     2.467000000     0.605000000
O     5.040000000    -1.421000000     1.637000000
H     4.582000000    -2.254000000     1.752000000
H     5.785000000    -1.633000000     1.075000000
O     4.207000000     5.896000000    -4.565000000
H     3.427000000     5.460000000    -4.221000000
H     4.928000000     5.544000000    -4.044000000
O    -2.638000000    -0.112000000    -6.537000000
H    -2.891000000    -0.338000000    -7.432000000
H    -2.784000000    -0.915000000    -6.036000000
O     1.886000000    -2.187000000     0.091000000
H     2.450000000    -1.760000000    -0.554000000
H     1.153000000    -1.582000000     0.206000000
O    -7.663000000    -1.963000000     0.945000000
H    -7.166000000    -1.361000000     0.390000000
H    -6.999000000    -2.530000000     1.337000000
O     1.515000000    -2.498000000     2.852000000
H     1.769000000    -1.679000000     3.278000000
H     1.831000000    -2.407000000     1.953000000
O    -0.048000000    -4.715000000     1.974000000
H     0.345000000    -3.899000000     2.285000000
H     0.347000000    -4.858000000     1.114000000
O     2.820000000    -3.429000000    -5.632000000
H     1.914000000    -3.740000000    -5.637000000
H     2.828000000    -2.727000000    -4.982000000
O     6.015000000     2.790000000    -4.298000000
H     5.190000000     2.629000000    -3.840000000
H     6.149000000     3.735000000    -4.225000000
O    -3.687000000     0.369000000    -4.054000000
H    -2.976000000     0.559000000    -4.666000000
H    -4.383000000     0.005000000    -4.601000000
O     0.263000000    -2.687000000    -4.112000000
H    -0.305000000    -1.941000000    -4.306000000
H     1.088000000    -2.292000000    -3.827000000
O    -0.045000000    -3.414000000     5.005000000
H     0.590000000    -3.108000000     4.357000000
H    -0.250000000    -2.638000000     5.525000000
O     6.120000000     1.357000000     2.530000000
H     5.769000000     0.468000000     2.472000000
H     6.066000000     1.695000000     1.636000000
O    -0.147000000     4.548000000     0.232000000
H     0.683000000     4.099000000     0.074000000
H    -0.219000000     5.180000000    -0.483000000
O    -3.903000000     0.820000000     1.510000000
H    -4.475000000     1.557000000     1.727000000
H    -4.151000000     0.579000000     0.618000000
O    -4.316000000    -3.586000000     0.199000000
H    -3.658000000    -4.281000000     0.216000000
H    -4.958000000    -3.847000000     0.860000000
O    -0.182000000     6.051000000    -2.104000000
H    -0.269000000     6.850000000    -2.624000000
H    -0.955000000     5.534000000    -2.329000000
O     4.698000000     6.220000000    -1.388000000
H     5.128000000     5.854000000    -0.615000000
H     3.953000000     5.640000000    -1.545000000
O    -6.470000000     2.022000000    -0.294000000
H    -5.888000000     1.361000000    -0.669000000
H    -6.010000000     2.850000000    -0.426000000
O     0.177000000     3.611000000     4.216000000
H    -0.086000000     2.868000000     3.673000000
H    -0.264000000     3.464000000     5.053000000
O    -0.059000000    -1.248000000     6.660000000
H     0.705000000    -0.726000000     6.905000000
H    -0.527000000    -1.387000000     7.483000000
O    -2.304000000     4.113000000     1.993000000
H    -2.121000000     3.244000000     2.349000000
H    -1.645000000     4.236000000     1.310000000
O    -2.329000000     1.893000000     3.605000000
H    -2.166000000     1.191000000     4.234000000
H    -2.711000000     1.452000000     2.846000000
O     2.887000000    -0.023000000     2.918000000
H     2.956000000     0.912000000     2.728000000
H     3.554000000    -0.430000000     2.366000000
O     2.746000000     5.143000000     0.907000000
H     3.500000000     5.372000000     1.450000000
H     2.939000000     4.261000000     0.589000000
O     1.850000000     7.492000000    -0.387000000
H     1.235000000     6.939000000    -0.869000000
H     2.377000000     6.876000000     0.122000000
O    -0.233000000    -5.313000000    -3.760000000
H    -0.361000000    -4.381000000    -3.941000000
H     0.717000000    -5.420000000    -3.715000000
O     3.806000000     2.228000000    -2.928000000
H     3.292000000     2.481000000    -2.160000000
H     3.184000000     1.765000000    -3.489000000
O     7.514000000     3.593000000    -0.439000000
H     6.659000000     3.189000000    -0.290000000
H     7.832000000     3.191000000    -1.247000000
O     2.491000000    -4.811000000    -0.415000000
H     2.975000000    -5.094000000     0.361000000
H     2.434000000    -3.859000000    -0.327000000
O    -2.760000000    -2.980000000    -6.006000000
H    -2.114000000    -3.519000000    -5.548000000
H    -2.716000000    -3.276000000    -6.916000000
O     2.796000000     2.989000000     3.795000000
H     1.923000000     3.381000000     3.817000000
H     3.012000000     2.937000000     2.864000000
O    -2.491000000     0.217000000     5.922000000
H    -1.643000000    -0.226000000     5.963000000
H    -2.557000000     0.686000000     6.754000000
O    -4.149000000    -1.672000000     2.361000000
H    -4.172000000    -2.060000000     1.486000000
H    -3.826000000    -0.782000000     2.220000000
O    -5.127000000    -0.720000000     4.774000000
H    -4.377000000    -0.266000000     5.157000000
H    -4.781000000    -1.127000000     3.979000000
