158
-3041.16731
C     0.785000000    -0.748000000     0.980000000
H     1.431000000    -1.311000000     1.650000000
C     0.875000000    -0.954000000    -0.413000000
H     1.580000000    -1.661000000    -0.843000000
C     0.164000000    -0.121000000    -1.238000000
H     0.144000000    -0.272000000    -2.311000000
C    -0.754000000     0.779000000    -0.683000000
H    -1.406000000     1.269000000    -1.401000000
C    -0.955000000     0.846000000     0.669000000
H    -1.707000000     1.527000000     1.059000000
C    -0.146000000     0.137000000     1.563000000
C    -0.453000000     0.296000000     3.045000000
O    -1.373000000     0.980000000     3.444000000
O     0.367000000    -0.075000000     3.851000000
O     4.934000000    -3.032000000     3.476000000
H     5.260000000    -3.685000000     2.856000000
H     4.158000000    -3.437000000     3.863000000
O    -4.322000000     1.768000000     6.968000000
H    -3.438000000     1.903000000     6.626000000
H    -4.331000000     2.239000000     7.801000000
O     5.344000000     3.621000000    -2.734000000
H     5.762000000     3.690000000    -3.593000000
H     4.932000000     2.757000000    -2.738000000
O     1.582000000     4.793000000     5.746000000
H     1.335000000     4.368000000     4.925000000
H     2.539000000     4.778000000     5.745000000
O     0.175000000    -2.910000000    -2.873000000
H    -0.547000000    -2.692000000    -3.463000000
H     0.936000000    -2.471000000    -3.254000000
O    -1.660000000    -3.298000000     6.292000000
H    -1.871000000    -2.414000000     6.593000000
H    -2.356000000    -3.512000000     5.671000000
O    -2.616000000    -2.704000000     2.612000000
H    -3.475000000    -2.363000000     2.363000000
H    -2.211000000    -2.961000000     1.784000000
O    -4.172000000     2.579000000    -0.984000000
H    -4.573000000     2.044000000    -0.299000000
H    -4.881000000     2.740000000    -1.607000000
O    -4.536000000    -1.180000000    -3.770000000
H    -5.284000000    -1.720000000    -3.515000000
H    -4.625000000    -0.384000000    -3.247000000
O     4.861000000    -2.493000000    -2.165000000
H     4.580000000    -2.884000000    -1.338000000
H     5.129000000    -1.605000000    -1.931000000
O     3.005000000     3.057000000     0.518000000
H     3.889000000     2.727000000     0.679000000
H     2.814000000     2.801000000    -0.384000000
O    -2.725000000     5.136000000    -4.377000000
H    -2.702000000     4.862000000    -3.460000000
H    -1.887000000     4.842000000    -4.736000000
O     0.193000000    -0.655000000     6.768000000
H     0.177000000    -0.003000000     6.068000000
H     0.593000000    -0.200000000     7.509000000
O     1.621000000     3.469000000    -3.671000000
H     2.337000000     2.911000000    -3.367000000
H     1.840000000     4.340000000    -3.342000000
O     0.661000000     3.464000000     3.534000000
H     0.237000000     2.607000000     3.563000000
H     0.183000000     3.945000000     2.859000000
O     4.292000000    -0.786000000     1.968000000
H     4.282000000    -1.446000000     2.661000000
H     4.745000000    -0.038000000     2.357000000
O     0.932000000    -6.344000000     1.692000000
H     0.857000000    -6.123000000     0.764000000
H     0.089000000    -6.739000000     1.913000000
O     0.797000000    -3.573000000     8.026000000
H    -0.061000000    -3.280000000     7.718000000
H     1.423000000    -3.086000000     7.491000000
O     3.367000000    -4.680000000    -5.461000000
H     2.886000000    -4.878000000    -4.657000000
H     2.698000000    -4.367000000    -6.070000000
O    -3.918000000     1.179000000     2.059000000
H    -4.257000000     0.283000000     2.063000000
H    -3.256000000     1.186000000     2.750000000
O     4.574000000     0.127000000    -0.680000000
H     4.470000000    -0.311000000     0.165000000
H     5.493000000     0.394000000    -0.700000000
O     2.949000000    -0.268000000     4.557000000
H     3.407000000     0.292000000     3.930000000
H     2.026000000    -0.191000000     4.317000000
O     0.689000000    -2.872000000     4.875000000
H     0.402000000    -1.996000000     4.616000000
H    -0.041000000    -3.221000000     5.387000000
O     2.912000000    -2.053000000     6.897000000
H     2.219000000    -1.921000000     6.250000000
H     3.695000000    -1.683000000     6.487000000
O    -4.817000000    -1.521000000     1.242000000
H    -5.707000000    -1.562000000     1.592000000
H    -4.898000000    -1.006000000     0.439000000
O    -3.212000000    -0.741000000     4.562000000
H    -2.506000000    -0.095000000     4.597000000
H    -2.871000000    -1.437000000     4.000000000
O    -0.741000000     4.513000000     1.505000000
H    -0.520000000     4.289000000     0.601000000
H    -1.620000000     4.156000000     1.633000000
O    -1.449000000    -3.380000000     0.161000000
H    -1.294000000    -2.491000000    -0.159000000
H    -0.657000000    -3.862000000    -0.077000000
O    -0.282000000     3.919000000    -5.919000000
H    -0.876000000     3.252000000    -6.263000000
H     0.062000000     3.539000000    -5.110000000
O     2.410000000    -1.907000000    -3.942000000
H     2.668000000    -1.028000000    -4.217000000
H     3.141000000    -2.216000000    -3.407000000
O    -2.557000000     2.181000000    -6.481000000
H    -3.307000000     2.212000000    -5.886000000
H    -2.328000000     1.253000000    -6.531000000
O     1.272000000     5.157000000    -0.404000000
H     1.811000000     5.216000000    -1.193000000
H     1.818000000     4.683000000     0.224000000
O    -5.958000000    -0.894000000     4.580000000
H    -6.037000000    -0.745000000     5.522000000
H    -5.015000000    -0.936000000     4.422000000
O    -1.777000000     2.793000000     5.408000000
H    -1.671000000     2.210000000     4.656000000
H    -0.934000000     3.241000000     5.485000000
O     2.207000000     0.693000000    -5.424000000
H     2.578000000     0.678000000    -6.307000000
H     1.525000000     1.363000000    -5.462000000
O    -0.180000000    -5.781000000     4.628000000
H     0.163000000    -4.891000000     4.712000000
H    -0.796000000    -5.732000000     3.897000000
O    -3.237000000     3.868000000     1.742000000
H    -3.465000000     2.941000000     1.808000000
H    -4.031000000     4.286000000     1.408000000
O     3.705000000    -3.197000000     0.232000000
H     3.974000000    -3.908000000     0.813000000
H     4.015000000    -2.402000000     0.666000000
O     1.921000000    -2.334000000    -6.830000000
H     1.195000000    -2.942000000    -6.968000000
H     1.852000000    -2.084000000    -5.909000000
O     0.910000000    -4.466000000    -0.782000000
H     1.599000000    -3.931000000    -0.388000000
H     0.564000000    -3.925000000    -1.492000000
O    -1.909000000    -2.087000000    -4.517000000
H    -2.699000000    -1.653000000    -4.195000000
H    -1.533000000    -1.467000000    -5.142000000
O     3.386000000     1.621000000    -2.747000000
H     3.268000000     1.203000000    -3.600000000
H     3.803000000     0.950000000    -2.207000000
O     2.659000000    -4.325000000     3.532000000
H     2.035000000    -4.621000000     2.869000000
H     2.134000000    -3.802000000     4.138000000
O    -2.967000000     4.984000000    -1.495000000
H    -3.264000000     4.264000000    -0.938000000
H    -2.497000000     5.569000000    -0.901000000
O     1.188000000    -5.347000000    -3.736000000
H     0.644000000    -4.761000000    -3.209000000
H     0.564000000    -5.929000000    -4.169000000
O    -3.404000000     4.786000000     4.457000000
H    -2.800000000     5.051000000     3.763000000
H    -3.043000000     3.964000000     4.788000000
O     0.528000000     2.993000000     7.512000000
H     0.816000000     3.763000000     7.023000000
H    -0.232000000     3.295000000     8.009000000
O    -1.313000000    -0.675000000    -6.766000000
H    -2.040000000    -1.195000000    -7.110000000
H    -0.685000000    -0.636000000    -7.487000000
