158
-3043.56245
C    -1.384000000     0.189000000    -0.447000000
H    -2.425000000     0.236000000    -0.756000000
C    -0.785000000    -1.032000000    -0.233000000
H    -1.327000000    -1.967000000    -0.343000000
C     0.505000000    -1.119000000     0.232000000
H     0.916000000    -2.114000000     0.467000000
C     1.231000000     0.042000000     0.388000000
H     2.288000000    -0.122000000     0.582000000
C     0.697000000     1.319000000     0.098000000
H     1.348000000     2.187000000     0.170000000
C    -0.646000000     1.387000000    -0.289000000
C    -1.264000000     2.804000000    -0.387000000
O    -2.462000000     2.953000000    -0.734000000
O    -0.595000000     3.837000000    -0.260000000
O     2.291000000    -4.760000000    -0.253000000
H     1.865000000    -4.983000000    -1.081000000
H     2.940000000    -4.097000000    -0.489000000
O     1.519000000    -2.219000000    -3.920000000
H     1.194000000    -2.168000000    -4.819000000
H     1.328000000    -1.359000000    -3.547000000
O     4.306000000    -2.915000000    -4.030000000
H     4.451000000    -2.460000000    -4.860000000
H     3.364000000    -2.842000000    -3.877000000
O     4.125000000     2.594000000    -0.664000000
H     3.707000000     2.696000000     0.191000000
H     3.778000000     3.316000000    -1.188000000
O    -5.894000000     5.017000000    -1.639000000
H    -5.301000000     4.362000000    -2.008000000
H    -5.320000000     5.735000000    -1.370000000
O     5.997000000    -1.968000000     2.130000000
H     5.324000000    -1.319000000     1.927000000
H     6.198000000    -1.824000000     3.054000000
O     4.479000000    -2.548000000    -0.647000000
H     4.594000000    -2.162000000     0.221000000
H     4.244000000    -1.809000000    -1.208000000
O    -2.046000000    -3.012000000     5.506000000
H    -2.426000000    -2.150000000     5.675000000
H    -1.503000000    -2.886000000     4.727000000
O    -3.090000000    -3.236000000     1.209000000
H    -2.835000000    -3.890000000     1.860000000
H    -2.261000000    -2.913000000     0.857000000
O     3.816000000    -6.865000000     0.896000000
H     3.226000000    -6.286000000     0.413000000
H     4.659000000    -6.412000000     0.882000000
O     1.759000000     4.580000000    -1.380000000
H     0.928000000     4.175000000    -1.129000000
H     1.904000000     5.258000000    -0.720000000
O    -1.827000000     5.117000000    -2.742000000
H    -2.331000000     4.430000000    -3.178000000
H    -1.479000000     4.696000000    -1.956000000
O    -7.339000000     1.416000000     0.196000000
H    -6.385000000     1.464000000     0.259000000
H    -7.640000000     2.284000000     0.464000000
O     4.582000000     0.548000000     1.533000000
H     4.102000000     1.201000000     2.043000000
H     4.219000000     0.619000000     0.651000000
O    -1.099000000    -1.769000000     2.886000000
H    -0.875000000    -1.287000000     2.090000000
H    -1.844000000    -1.293000000     3.253000000
O    -4.253000000     3.165000000    -2.608000000
H    -3.678000000     3.100000000    -1.845000000
H    -4.592000000     2.278000000    -2.728000000
O    -4.838000000    -0.584000000    -1.897000000
H    -4.911000000    -0.861000000    -0.984000000
H    -4.563000000    -1.372000000    -2.366000000
O    -4.839000000    -1.373000000     0.906000000
H    -5.326000000    -1.059000000     1.668000000
H    -4.277000000    -2.067000000     1.251000000
O    -0.405000000    -4.661000000     0.988000000
H    -0.593000000    -5.546000000     1.301000000
H     0.405000000    -4.752000000     0.485000000
O    -3.959000000     0.036000000    -4.892000000
H    -3.352000000    -0.343000000    -4.257000000
H    -4.827000000    -0.192000000    -4.559000000
O    -0.733000000     7.641000000    -3.526000000
H    -1.050000000     6.928000000    -2.972000000
H     0.212000000     7.501000000    -3.580000000
O    -4.421000000     1.711000000     0.384000000
H    -3.589000000     2.065000000     0.069000000
H    -4.274000000     0.767000000     0.442000000
O    -4.946000000     1.742000000     3.118000000
H    -5.637000000     2.330000000     3.425000000
H    -4.917000000     1.880000000     2.172000000
O    -0.115000000    -5.590000000     3.895000000
H     0.029000000    -5.923000000     3.009000000
H     0.749000000    -5.618000000     4.305000000
O     3.722000000    -1.179000000     4.158000000
H     2.937000000    -1.650000000     3.880000000
H     4.184000000    -1.798000000     4.723000000
O    -2.244000000    -6.230000000    -1.441000000
H    -2.703000000    -6.406000000    -2.263000000
H    -2.943000000    -6.090000000    -0.802000000
O    -3.749000000     6.649000000    -1.536000000
H    -3.798000000     7.533000000    -1.901000000
H    -3.155000000     6.181000000    -2.123000000
O     1.648000000    -2.945000000     3.092000000
H     1.538000000    -3.833000000     2.754000000
H     0.761000000    -2.662000000     3.315000000
O    -4.303000000    -2.871000000    -3.360000000
H    -3.458000000    -2.981000000    -3.795000000
H    -4.949000000    -3.026000000    -4.050000000
O    -3.768000000     4.530000000     4.034000000
H    -4.696000000     4.298000000     3.998000000
H    -3.374000000     4.058000000     3.300000000
O     2.481000000    -5.750000000     4.205000000
H     2.875000000    -6.200000000     3.458000000
H     3.211000000    -5.597000000     4.805000000
O     0.065000000     1.333000000    -5.010000000
H     0.086000000     0.845000000    -4.187000000
H     0.793000000     1.951000000    -4.940000000
O     0.145000000     2.139000000     3.433000000
H    -0.513000000     2.810000000     3.249000000
H     0.682000000     2.515000000     4.130000000
O    -3.490000000     5.447000000     1.071000000
H    -4.417000000     5.267000000     1.225000000
H    -3.327000000     5.126000000     0.185000000
O     7.109000000    -2.768000000    -1.281000000
H     6.195000000    -2.628000000    -1.035000000
H     7.398000000    -3.491000000    -0.726000000
O    -4.760000000    -4.211000000    -0.930000000
H    -4.416000000    -3.900000000    -1.768000000
H    -4.073000000    -4.000000000    -0.297000000
O     1.163000000     0.285000000    -2.792000000
H     2.026000000     0.539000000    -2.465000000
H     0.726000000    -0.105000000    -2.035000000
O     0.169000000     6.909000000     3.168000000
H    -0.201000000     6.201000000     2.641000000
H    -0.509000000     7.107000000     3.814000000
O    -0.334000000     7.166000000    -0.339000000
H    -1.049000000     7.361000000     0.267000000
H    -0.265000000     6.211000000    -0.328000000
O    -2.824000000    -5.132000000     3.331000000
H    -1.968000000    -5.221000000     3.750000000
H    -2.949000000    -5.958000000     2.863000000
O    -1.103000000     4.478000000     2.246000000
H    -0.697000000     4.175000000     1.434000000
H    -1.961000000     4.807000000     1.978000000
O     0.564000000    -0.454000000     4.689000000
H     0.735000000     0.317000000     4.148000000
H    -0.216000000    -0.851000000     4.301000000
O     0.458000000    -7.113000000    -1.542000000
H     0.948000000    -6.509000000    -2.100000000
H    -0.253000000    -6.584000000    -1.182000000
O     1.566000000    -4.806000000    -2.867000000
H     1.875000000    -5.143000000    -3.708000000
H     1.505000000    -3.859000000    -2.996000000
O     1.583000000     3.494000000    -4.712000000
H     1.992000000     3.533000000    -3.847000000
H     2.206000000     3.932000000    -5.291000000
O     3.871000000    -0.050000000    -2.007000000
H     4.298000000    -0.015000000    -2.863000000
H     4.226000000     0.700000000    -1.531000000
O     3.095000000     2.892000000     1.889000000
H     3.480000000     3.624000000     2.372000000
H     2.187000000     2.857000000     2.190000000
O     4.623000000     1.286000000     4.371000000
H     5.548000000     1.158000000     4.161000000
H     4.246000000     0.407000000     4.338000000
