158
-3065.66854
C    -1.303000000     0.223000000    -0.576000000
H    -2.303000000     0.399000000    -0.963000000
C    -0.796000000    -1.017000000    -0.386000000
H    -1.447000000    -1.887000000    -0.424000000
C     0.456000000    -1.079000000     0.241000000
H     0.778000000    -2.035000000     0.511000000
C     1.234000000     0.044000000     0.445000000
H     2.233000000    -0.127000000     0.837000000
C     0.762000000     1.325000000     0.148000000
H     1.430000000     2.163000000     0.332000000
C    -0.528000000     1.378000000    -0.333000000
C    -1.290000000     2.716000000    -0.577000000
O    -2.045000000     2.830000000    -1.520000000
O    -1.083000000     3.672000000     0.157000000
O     2.610000000    -7.095000000    -1.438000000
H     2.765000000    -6.168000000    -1.618000000
H     3.046000000    -7.554000000    -2.156000000
O     4.467000000     2.110000000     2.033000000
H     4.015000000     2.325000000     2.849000000
H     3.936000000     2.520000000     1.350000000
O    -6.490000000     4.147000000    -4.089000000
H    -7.209000000     4.167000000    -3.457000000
H    -5.772000000     3.721000000    -3.621000000
O    -1.288000000    -3.253000000    -3.540000000
H    -1.880000000    -2.863000000    -4.183000000
H    -0.619000000    -3.693000000    -4.065000000
O     3.287000000    -4.646000000     1.495000000
H     3.977000000    -4.910000000     2.104000000
H     3.453000000    -3.718000000     1.332000000
O     1.903000000    -6.183000000     3.171000000
H     2.228000000    -5.373000000     2.778000000
H     2.062000000    -6.853000000     2.505000000
O     1.078000000    -4.893000000    -0.190000000
H     1.729000000    -4.661000000     0.472000000
H     1.469000000    -4.617000000    -1.019000000
O    -5.277000000    -0.463000000     1.976000000
H    -5.584000000     0.346000000     1.566000000
H    -4.393000000    -0.586000000     1.631000000
O     4.314000000     3.722000000    -1.998000000
H     4.224000000     3.596000000    -1.053000000
H     4.367000000     2.834000000    -2.353000000
O    -1.625000000     4.424000000    -3.419000000
H    -1.409000000     5.222000000    -2.935000000
H    -1.837000000     3.783000000    -2.740000000
O    -4.238000000     5.147000000     3.269000000
H    -3.818000000     5.065000000     2.413000000
H    -4.331000000     4.245000000     3.577000000
O     3.912000000    -2.069000000     1.594000000
H     3.244000000    -1.644000000     2.132000000
H     4.716000000    -1.587000000     1.786000000
O    -1.910000000     0.289000000     2.614000000
H    -1.688000000    -0.581000000     2.282000000
H    -1.347000000     0.885000000     2.120000000
O    -4.731000000     0.443000000    -4.195000000
H    -5.320000000    -0.294000000    -4.032000000
H    -4.887000000     0.676000000    -5.110000000
O    -6.034000000    -0.798000000    -1.307000000
H    -6.576000000    -0.242000000    -0.747000000
H    -6.622000000    -1.076000000    -2.009000000
O    -4.758000000    -3.413000000    -0.276000000
H    -4.999000000    -2.621000000    -0.757000000
H    -5.454000000    -4.038000000    -0.480000000
O     6.640000000    -1.242000000    -1.159000000
H     5.948000000    -1.898000000    -1.244000000
H     6.641000000    -0.784000000    -1.999000000
O     0.467000000    -7.799000000     0.720000000
H    -0.465000000    -7.884000000     0.917000000
H     0.541000000    -6.958000000     0.268000000
O     6.096000000    -0.286000000     1.763000000
H     5.737000000     0.575000000     1.976000000
H     6.390000000    -0.205000000     0.855000000
O    -0.624000000    -3.830000000     2.176000000
H    -1.422000000    -3.355000000     1.943000000
H    -0.243000000    -4.084000000     1.335000000
O    -0.802000000     6.009000000    -1.099000000
H    -1.000000000     5.292000000    -0.497000000
H     0.145000000     5.955000000    -1.233000000
O    -4.718000000     2.772000000    -2.558000000
H    -3.819000000     2.950000000    -2.284000000
H    -4.662000000     1.949000000    -3.045000000
O    -5.317000000     2.484000000     1.168000000
H    -5.590000000     2.888000000     1.992000000
H    -4.645000000     3.071000000     0.824000000
O    -0.748000000    -5.918000000     3.931000000
H    -0.823000000    -5.039000000     3.560000000
H     0.125000000    -6.214000000     3.671000000
O     2.344000000    -2.521000000     5.250000000
H     1.749000000    -3.126000000     5.694000000
H     3.152000000    -3.021000000     5.135000000
O     2.257000000     7.164000000     0.794000000
H     1.696000000     6.439000000     1.069000000
H     2.268000000     7.757000000     1.546000000
O    -4.389000000     6.131000000    -1.825000000
H    -4.073000000     5.860000000    -2.687000000
H    -4.296000000     7.084000000    -1.825000000
O    -2.936000000    -2.644000000     1.561000000
H    -3.303000000    -2.788000000     2.434000000
H    -3.635000000    -2.904000000     0.962000000
O    -1.496000000    -5.220000000    -1.405000000
H    -1.634000000    -4.444000000    -1.948000000
H    -0.561000000    -5.206000000    -1.200000000
O     5.033000000     1.071000000    -2.559000000
H     4.941000000     0.661000000    -3.418000000
H     4.599000000     0.467000000    -1.957000000
O    -1.883000000     0.341000000    -3.824000000
H    -2.570000000    -0.295000000    -4.023000000
H    -2.337000000     1.047000000    -3.364000000
O     0.257000000     0.789000000     4.307000000
H     0.154000000     0.119000000     4.982000000
H    -0.632000000     0.947000000     3.988000000
O    -1.399000000     0.890000000    -6.491000000
H    -1.417000000     1.037000000    -5.545000000
H    -1.450000000    -0.061000000    -6.586000000
O     0.082000000     8.693000000    -1.456000000
H    -0.330000000     7.847000000    -1.281000000
H    -0.641000000     9.320000000    -1.433000000
O    -3.331000000    -6.029000000     0.741000000
H    -2.748000000    -5.606000000     0.110000000
H    -2.783000000    -6.687000000     1.169000000
O    -7.132000000     2.318000000    -0.864000000
H    -6.784000000     2.476000000     0.014000000
H    -6.436000000     2.609000000    -1.453000000
O     1.232000000    -0.278000000    -2.920000000
H     1.282000000     0.676000000    -2.977000000
H     0.348000000    -0.452000000    -2.597000000
O     3.350000000     4.138000000     0.607000000
H     3.695000000     4.681000000     1.316000000
H     2.411000000     4.079000000     0.785000000
O    -3.593000000     4.561000000     0.654000000
H    -3.884000000     4.803000000    -0.226000000
H    -2.702000000     4.234000000     0.530000000
O     0.459000000     5.286000000     1.732000000
H    -0.134000000     4.717000000     1.240000000
H     0.072000000     5.337000000     2.606000000
O     2.253000000    -4.071000000    -2.608000000
H     2.399000000    -3.187000000    -2.945000000
H     3.096000000    -4.511000000    -2.719000000
O     1.025000000     2.550000000    -3.051000000
H     1.248000000     3.320000000    -2.528000000
H     0.129000000     2.713000000    -3.345000000
O     3.365000000    -1.434000000    -1.472000000
H     2.457000000    -1.205000000    -1.673000000
H     3.326000000    -1.823000000    -0.598000000
O     2.937000000     2.771000000     4.142000000
H     3.397000000     2.678000000     4.977000000
H     2.037000000     2.506000000     4.334000000
O    -3.255000000     5.548000000    -5.460000000
H    -2.722000000     5.094000000    -4.808000000
H    -2.658000000     5.703000000    -6.192000000
O     4.693000000    -0.087000000     5.294000000
H     4.178000000     0.088000000     4.507000000
H     4.987000000    -0.992000000     5.192000000
O     2.703000000    -0.228000000     3.515000000
H     2.621000000    -1.060000000     3.982000000
H     1.873000000     0.220000000     3.676000000
O     1.915000000     4.966000000    -1.879000000
H     2.730000000     4.682000000    -2.291000000
H     2.100000000     4.946000000    -0.940000000
