158
-3024.99369
C     1.032000000     0.139000000     1.006000000
H     1.877000000     0.189000000     1.687000000
C     1.233000000    -0.133000000    -0.361000000
H     2.263000000    -0.222000000    -0.695000000
C     0.160000000    -0.183000000    -1.202000000
H     0.265000000    -0.334000000    -2.284000000
C    -1.182000000    -0.009000000    -0.728000000
H    -2.008000000    -0.079000000    -1.431000000
C    -1.341000000     0.163000000     0.646000000
H    -2.345000000     0.239000000     1.055000000
C    -0.245000000     0.220000000     1.513000000
C    -0.436000000     0.604000000     2.992000000
O    -1.529000000     1.087000000     3.279000000
O     0.467000000     0.699000000     3.782000000
O    -2.617000000     0.786000000     6.670000000
H    -1.777000000     1.083000000     6.321000000
H    -3.244000000     1.449000000     6.382000000
O     3.525000000     3.888000000    -1.249000000
H     4.474000000     3.767000000    -1.282000000
H     3.173000000     3.174000000    -1.781000000
O    -3.985000000    -4.590000000     2.263000000
H    -4.915000000    -4.504000000     2.473000000
H    -3.833000000    -3.941000000     1.576000000
O     2.369000000     1.541000000     7.096000000
H     2.620000000     1.188000000     6.243000000
H     2.846000000     2.368000000     7.162000000
O     0.821000000    -3.759000000    -2.320000000
H     0.370000000    -3.909000000    -3.151000000
H     1.337000000    -2.967000000    -2.467000000
O    -0.518000000     4.888000000     2.889000000
H    -0.232000000     4.251000000     2.235000000
H    -0.017000000     5.679000000     2.688000000
O    -0.339000000    -2.449000000     6.436000000
H    -0.576000000    -2.281000000     7.348000000
H    -1.164000000    -2.686000000     6.013000000
O    -2.899000000    -2.822000000     0.358000000
H    -2.921000000    -2.968000000    -0.588000000
H    -1.987000000    -2.597000000     0.544000000
O    -4.041000000     1.951000000    -1.455000000
H    -4.445000000     1.647000000    -2.268000000
H    -3.662000000     1.162000000    -1.067000000
O    -4.990000000     0.896000000     1.989000000
H    -4.919000000     0.351000000     2.773000000
H    -4.421000000     1.645000000     2.166000000
O     3.567000000    -3.077000000    -0.548000000
H     3.190000000    -3.200000000     0.323000000
H     4.510000000    -3.184000000    -0.418000000
O    -0.856000000    -0.575000000    -7.716000000
H    -0.580000000    -0.249000000    -6.860000000
H    -1.779000000    -0.331000000    -7.780000000
O    -2.018000000     4.443000000    -4.349000000
H    -2.036000000     4.292000000    -3.404000000
H    -1.190000000     4.058000000    -4.637000000
O     0.820000000     3.564000000    -3.766000000
H     0.250000000     3.588000000    -2.997000000
H     1.057000000     2.642000000    -3.859000000
O     2.869000000     2.103000000     4.342000000
H     2.196000000     1.717000000     3.782000000
H     2.747000000     3.048000000     4.246000000
O     6.830000000    -1.604000000     1.622000000
H     7.610000000    -1.115000000     1.358000000
H     6.180000000    -0.929000000     1.819000000
O    -3.076000000    -2.116000000    -6.111000000
H    -3.400000000    -1.450000000    -6.717000000
H    -3.839000000    -2.348000000    -5.581000000
O     1.975000000    -3.732000000    -6.236000000
H     1.639000000    -3.031000000    -6.795000000
H     1.295000000    -3.857000000    -5.574000000
O    -3.453000000     3.059000000     2.705000000
H    -3.140000000     3.415000000     1.873000000
H    -2.753000000     2.473000000     2.992000000
O     4.613000000    -0.863000000     3.727000000
H     3.756000000    -0.440000000     3.663000000
H     4.495000000    -1.543000000     4.390000000
O     1.684000000    -1.470000000     4.735000000
H     1.283000000    -0.655000000     4.433000000
H     1.005000000    -1.889000000     5.264000000
O     3.884000000    -2.198000000     6.197000000
H     3.102000000    -1.725000000     5.912000000
H     3.561000000    -2.833000000     6.836000000
O    -2.831000000    -3.334000000    -2.433000000
H    -3.588000000    -3.134000000    -2.983000000
H    -2.523000000    -4.183000000    -2.750000000
O    -3.642000000    -0.379000000     4.388000000
H    -3.017000000     0.209000000     3.966000000
H    -3.413000000    -0.345000000     5.317000000
O     0.655000000     3.258000000     0.809000000
H     0.439000000     3.481000000    -0.096000000
H     0.535000000     2.309000000     0.857000000
O     0.071000000    -3.066000000     0.468000000
H     0.301000000    -2.197000000     0.140000000
H     0.221000000    -3.650000000    -0.275000000
O     0.208000000     4.013000000    -6.310000000
H     0.252000000     3.152000000    -6.724000000
H     0.736000000     3.925000000    -5.516000000
O     3.073000000     3.849000000     1.708000000
H     2.157000000     3.747000000     1.450000000
H     3.571000000     3.557000000     0.943000000
O     3.313000000    -1.781000000    -2.856000000
H     4.030000000    -1.153000000    -2.768000000
H     3.273000000    -2.219000000    -2.006000000
O    -1.714000000     1.250000000    -5.461000000
H    -2.376000000     1.941000000    -5.438000000
H    -1.969000000     0.651000000    -4.760000000
O    -5.808000000    -2.058000000     4.124000000
H    -6.453000000    -1.640000000     4.695000000
H    -5.002000000    -1.561000000     4.269000000
O    -0.263000000     1.745000000     6.051000000
H     0.017000000     1.318000000     5.242000000
H     0.544000000     2.092000000     6.431000000
O     1.228000000     0.503000000    -4.437000000
H     1.782000000     0.184000000    -5.150000000
H     0.597000000    -0.201000000    -4.290000000
O    -5.017000000     4.064000000     4.552000000
H    -4.519000000     4.131000000     5.367000000
H    -4.352000000     3.941000000     3.874000000
O     4.608000000    -3.307000000    -4.701000000
H     4.032000000    -2.807000000    -4.123000000
H     4.044000000    -3.578000000    -5.425000000
O    -3.063000000     4.452000000    -0.232000000
H    -3.746000000     4.180000000    -0.845000000
H    -3.506000000     5.051000000     0.369000000
O     3.405000000    -0.005000000    -6.509000000
H     3.156000000     0.914000000    -6.610000000
H     3.260000000    -0.388000000    -7.374000000
O    -0.377000000    -4.479000000    -4.711000000
H    -1.107000000    -4.885000000    -4.244000000
H    -0.582000000    -4.611000000    -5.636000000
O     2.770000000     1.600000000    -2.599000000
H     3.615000000     1.152000000    -2.649000000
H     2.199000000     1.100000000    -3.182000000
O    -0.948000000    -4.174000000     2.918000000
H    -1.850000000    -3.881000000     2.787000000
H    -0.434000000    -3.650000000     2.304000000
O     3.151000000    -3.578000000     3.497000000
H     2.509000000    -2.887000000     3.664000000
H     2.623000000    -4.353000000     3.303000000
O    -1.019000000     3.143000000    -1.822000000
H    -1.426000000     2.347000000    -2.164000000
H    -1.702000000     3.554000000    -1.292000000
O    -4.929000000     1.540000000    -4.104000000
H    -5.535000000     1.010000000    -4.622000000
H    -4.642000000     2.230000000    -4.702000000
O     5.349000000     0.077000000    -2.638000000
H     5.583000000     0.204000000    -3.557000000
H     6.171000000    -0.163000000    -2.212000000
O     5.485000000     2.358000000     3.603000000
H     4.543000000     2.235000000     3.724000000
H     5.887000000     1.783000000     4.254000000
O     2.061000000    -6.129000000    -1.901000000
H     1.809000000    -5.300000000    -2.308000000
H     2.903000000    -6.346000000    -2.301000000
O    -1.465000000     4.339000000     5.419000000
H    -0.967000000     4.652000000     4.664000000
H    -1.098000000     3.475000000     5.606000000
O    -0.829000000    -1.423000000    -4.403000000
H    -1.430000000    -1.463000000    -5.148000000
H    -0.980000000    -2.241000000    -3.930000000
