158
-3052.34635
C    -0.723000000    -1.277000000    -0.245000000
H    -1.166000000    -2.267000000    -0.313000000
C     0.564000000    -1.132000000     0.206000000
H     1.132000000    -2.005000000     0.518000000
C     1.176000000     0.105000000     0.435000000
H     2.185000000     0.201000000     0.696000000
C     0.384000000     1.237000000     0.149000000
H     0.854000000     2.199000000     0.338000000
C    -0.925000000     1.125000000    -0.380000000
H    -1.351000000     2.047000000    -0.766000000
C    -1.516000000    -0.144000000    -0.579000000
C    -2.925000000    -0.230000000    -1.002000000
O    -3.458000000    -1.305000000    -0.758000000
O    -3.519000000     0.758000000    -1.315000000
O    -7.408000000     2.214000000     0.955000000
H    -6.971000000     2.920000000     0.477000000
H    -8.338000000     2.335000000     0.763000000
O    -0.068000000     4.052000000     2.421000000
H     0.116000000     3.175000000     2.758000000
H     0.743000000     4.539000000     2.565000000
O     1.879000000     1.673000000    -2.552000000
H     1.164000000     1.814000000    -1.931000000
H     1.469000000     1.760000000    -3.413000000
O     3.418000000    -0.968000000     3.465000000
H     3.514000000    -0.139000000     2.997000000
H     2.479000000    -1.041000000     3.634000000
O     5.019000000     2.378000000    -4.351000000
H     4.515000000     2.609000000    -3.570000000
H     5.808000000     2.917000000    -4.295000000
O    -2.696000000     1.924000000    -3.661000000
H    -3.038000000     2.818000000    -3.681000000
H    -3.158000000     1.507000000    -2.933000000
O    -4.879000000     4.010000000    -4.013000000
H    -5.733000000     3.651000000    -3.770000000
H    -4.894000000     4.908000000    -3.681000000
O     2.496000000     5.172000000     3.236000000
H     2.860000000     5.510000000     4.054000000
H     3.215000000     4.682000000     2.837000000
O     4.525000000    -0.580000000    -0.966000000
H     5.079000000     0.175000000    -0.769000000
H     4.039000000    -0.322000000    -1.749000000
O     4.041000000    -3.107000000     0.100000000
H     3.492000000    -3.478000000    -0.590000000
H     4.288000000    -2.243000000    -0.230000000
O     6.997000000    -1.222000000    -2.318000000
H     6.585000000    -0.968000000    -3.144000000
H     6.272000000    -1.280000000    -1.696000000
O     3.504000000     4.175000000     0.600000000
H     2.979000000     4.963000000     0.462000000
H     3.714000000     3.870000000    -0.283000000
O     2.161000000    -2.578000000    -2.948000000
H     2.350000000    -1.655000000    -2.775000000
H     2.684000000    -2.789000000    -3.721000000
O     0.779000000    -5.229000000    -0.063000000
H     0.321000000    -4.985000000    -0.868000000
H     0.363000000    -4.702000000     0.619000000
O    -0.474000000     4.900000000    -0.409000000
H    -0.550000000     4.623000000     0.504000000
H    -1.309000000     4.650000000    -0.805000000
O     4.686000000    -3.980000000     4.183000000
H     5.016000000    -3.236000000     3.679000000
H     3.831000000    -3.691000000     4.505000000
O    -3.558000000     3.942000000    -1.008000000
H    -3.983000000     4.051000000    -1.858000000
H    -3.667000000     3.013000000    -0.803000000
O    -3.811000000     5.646000000     1.204000000
H    -4.735000000     5.888000000     1.146000000
H    -3.632000000     5.185000000     0.384000000
O    -2.717000000     2.292000000     3.555000000
H    -3.069000000     2.745000000     2.789000000
H    -2.427000000     2.995000000     4.136000000
O    -5.356000000    -2.520000000     2.209000000
H    -5.565000000    -1.728000000     1.715000000
H    -6.106000000    -3.098000000     2.066000000
O     0.347000000     1.944000000    -4.751000000
H    -0.448000000     1.424000000    -4.869000000
H     0.256000000     2.664000000    -5.375000000
O     3.411000000    -0.306000000    -3.754000000
H     3.029000000    -0.520000000    -4.605000000
H     2.814000000     0.342000000    -3.380000000
O    -8.778000000    -0.988000000    -0.358000000
H    -8.764000000    -0.059000000    -0.590000000
H    -7.886000000    -1.290000000    -0.525000000
O     5.510000000    -2.048000000     2.271000000
H     5.311000000    -2.511000000     1.457000000
H     4.658000000    -1.765000000     2.601000000
O    -7.308000000     2.922000000    -3.640000000
H    -6.851000000     2.117000000    -3.397000000
H    -7.868000000     2.667000000    -4.373000000
O    -0.143000000     4.921000000    -3.823000000
H    -0.975000000     5.352000000    -4.016000000
H    -0.255000000     4.027000000    -4.146000000
O     1.274000000    -3.733000000     4.180000000
H     1.032000000    -2.850000000     3.899000000
H     1.783000000    -3.598000000     4.979000000
O    -0.084000000    -4.386000000    -2.412000000
H    -0.655000000    -3.738000000    -2.825000000
H     0.745000000    -3.926000000    -2.282000000
O    -5.730000000     0.796000000    -2.651000000
H    -4.850000000     0.758000000    -2.278000000
H    -5.930000000    -0.110000000    -2.887000000
O    -1.127000000    -4.378000000     1.711000000
H    -1.129000000    -4.230000000     2.657000000
H    -2.031000000    -4.212000000     1.441000000
O     1.053000000     2.052000000     5.614000000
H     1.088000000     1.673000000     4.736000000
H     0.122000000     2.207000000     5.771000000
O     1.131000000     1.414000000     3.022000000
H     2.055000000     1.451000000     2.773000000
H     0.775000000     0.687000000     2.513000000
O     3.210000000    -5.909000000    -1.433000000
H     2.436000000    -5.854000000    -0.873000000
H     3.665000000    -6.697000000    -1.136000000
O    -1.392000000    -0.083000000    -4.984000000
H    -1.693000000    -0.039000000    -5.892000000
H    -1.979000000     0.504000000    -4.508000000
O     3.718000000     3.736000000    -2.042000000
H     3.048000000     3.055000000    -2.111000000
H     3.363000000     4.472000000    -2.540000000
O     5.763000000    -0.159000000     4.912000000
H     6.237000000     0.673000000     4.932000000
H     5.203000000    -0.097000000     4.139000000
O    -5.652000000    -0.067000000     0.726000000
H    -6.234000000     0.689000000     0.650000000
H    -4.994000000     0.067000000     0.044000000
O     0.234000000    -1.298000000     3.880000000
H    -0.190000000    -1.458000000     4.723000000
H    -0.467000000    -0.965000000     3.319000000
O    -1.738000000    -2.538000000    -3.285000000
H    -2.299000000    -2.174000000    -2.600000000
H    -1.564000000    -1.800000000    -3.870000000
O     5.205000000     4.490000000     2.614000000
H     5.320000000     5.440000000     2.650000000
H     4.966000000     4.313000000     1.704000000
O    -3.458000000    -3.590000000     0.695000000
H    -3.344000000    -2.830000000     0.124000000
H    -4.282000000    -3.424000000     1.152000000
O    -6.237000000    -4.525000000    -2.666000000
H    -6.293000000    -4.555000000    -1.711000000
H    -7.145000000    -4.431000000    -2.956000000
O    -2.393000000    -0.544000000     2.982000000
H    -2.335000000     0.363000000     3.282000000
H    -2.809000000    -0.486000000     2.122000000
O    -4.151000000    -1.646000000    -5.735000000
H    -3.930000000    -2.569000000    -5.860000000
H    -4.285000000    -1.558000000    -4.791000000
O     5.921000000     1.891000000    -0.444000000
H     6.314000000     2.448000000    -1.116000000
H     6.622000000     1.756000000     0.195000000
O    -4.964000000    -1.928000000    -3.161000000
H    -5.398000000    -2.780000000    -3.191000000
H    -4.387000000    -1.978000000    -2.399000000
O     3.772000000     1.549000000     2.476000000
H     4.057000000     2.378000000     2.859000000
H     4.080000000     1.584000000     1.570000000
O    -3.662000000    -5.733000000    -0.932000000
H    -3.644000000    -5.263000000    -0.098000000
H    -3.188000000    -5.164000000    -1.538000000
