158
-3047.24394
C    -1.126000000    -0.950000000    -0.426000000
H    -1.766000000    -1.678000000    -0.919000000
C     0.227000000    -1.304000000    -0.149000000
H     0.526000000    -2.323000000    -0.380000000
C     1.118000000    -0.354000000     0.318000000
H     2.128000000    -0.707000000     0.615000000
C     0.736000000     0.955000000     0.513000000
H     1.390000000     1.729000000     0.907000000
C    -0.511000000     1.334000000     0.114000000
H    -0.738000000     2.392000000     0.217000000
C    -1.500000000     0.411000000    -0.275000000
C    -2.945000000     0.824000000    -0.570000000
O    -3.554000000     0.147000000    -1.322000000
O    -3.277000000     2.003000000    -0.402000000
O    -0.899000000     2.494000000     3.769000000
H    -0.980000000     3.269000000     3.212000000
H    -1.800000000     2.199000000     3.901000000
O     4.943000000     0.280000000    -0.797000000
H     4.179000000     0.504000000    -1.328000000
H     4.913000000    -0.674000000    -0.724000000
O     2.443000000     0.314000000    -2.419000000
H     1.960000000     1.024000000    -2.844000000
H     1.776000000    -0.342000000    -2.219000000
O     4.098000000     0.012000000     5.473000000
H     3.362000000     0.548000000     5.768000000
H     4.656000000     0.618000000     4.986000000
O     6.418000000     1.277000000    -3.001000000
H     5.819000000     0.893000000    -2.361000000
H     6.960000000     1.878000000    -2.491000000
O    -3.605000000     4.147000000    -2.262000000
H    -4.562000000     4.153000000    -2.233000000
H    -3.348000000     3.542000000    -1.566000000
O    -0.520000000    -3.909000000    -1.837000000
H     0.057000000    -3.555000000    -2.514000000
H    -1.353000000    -4.056000000    -2.285000000
O     0.248000000     6.024000000    -2.304000000
H     0.755000000     6.792000000    -2.040000000
H    -0.421000000     5.934000000    -1.625000000
O     2.588000000     5.429000000     3.428000000
H     1.636000000     5.518000000     3.403000000
H     2.741000000     4.485000000     3.442000000
O    -0.020000000     5.114000000     2.662000000
H    -0.395000000     5.979000000     2.824000000
H    -0.630000000     4.699000000     2.052000000
O     4.722000000    -0.123000000     2.244000000
H     5.616000000    -0.448000000     2.138000000
H     4.668000000     0.625000000     1.649000000
O     6.725000000    -2.073000000     0.780000000
H     5.956000000    -2.057000000     0.211000000
H     7.303000000    -2.726000000     0.385000000
O     0.839000000    -1.236000000     5.262000000
H     1.158000000    -0.345000000     5.404000000
H     1.583000000    -1.796000000     5.483000000
O     3.282000000    -3.816000000     1.022000000
H     2.543000000    -4.375000000     0.782000000
H     2.888000000    -3.094000000     1.511000000
O    -0.563000000    -6.648000000     2.418000000
H    -0.207000000    -6.157000000     1.677000000
H    -1.089000000    -6.008000000     2.897000000
O    -3.343000000    -0.863000000     4.295000000
H    -2.877000000    -0.523000000     5.059000000
H    -2.651000000    -1.171000000     3.710000000
O    -1.725000000     6.527000000    -0.337000000
H    -1.997000000     5.712000000     0.085000000
H    -1.883000000     7.203000000     0.323000000
O    -4.275000000     5.635000000     0.962000000
H    -5.191000000     5.533000000     1.221000000
H    -4.246000000     6.479000000     0.511000000
O    -2.232000000     4.118000000     1.223000000
H    -2.459000000     3.323000000     0.741000000
H    -3.055000000     4.603000000     1.286000000
O    -8.221000000     2.157000000     1.329000000
H    -7.277000000     2.030000000     1.426000000
H    -8.446000000     1.680000000     0.531000000
O     3.841000000    -1.499000000    -4.040000000
H     3.636000000    -0.820000000    -3.398000000
H     3.723000000    -2.322000000    -3.565000000
O     0.966000000    -5.091000000     0.208000000
H     0.541000000    -4.677000000    -0.543000000
H     1.449000000    -5.828000000    -0.166000000
O    -1.405000000    -4.310000000     3.600000000
H    -1.595000000    -3.780000000     4.374000000
H    -0.699000000    -3.840000000     3.156000000
O     2.749000000    -3.945000000     4.224000000
H     3.155000000    -3.230000000     3.733000000
H     2.656000000    -3.603000000     5.113000000
O    -3.485000000    -3.786000000    -3.218000000
H    -4.228000000    -3.795000000    -3.820000000
H    -3.881000000    -3.728000000    -2.349000000
O     0.738000000    -3.476000000    -4.176000000
H     1.206000000    -3.585000000    -5.004000000
H     0.449000000    -2.563000000    -4.184000000
O    -5.512000000     2.282000000     1.004000000
H    -5.255000000     1.524000000     1.530000000
H    -4.793000000     2.398000000     0.383000000
O    -0.711000000    -1.214000000     2.847000000
H    -0.290000000    -0.621000000     2.225000000
H    -0.157000000    -1.175000000     3.627000000
O     1.525000000     0.996000000     3.845000000
H     2.343000000     1.490000000     3.911000000
H     0.878000000     1.642000000     3.564000000
O     4.523000000    -2.621000000    -1.429000000
H     4.146000000    -3.058000000    -0.665000000
H     4.502000000    -3.284000000    -2.119000000
O    -1.915000000     2.743000000    -3.701000000
H    -2.598000000     3.244000000    -3.254000000
H    -2.391000000     2.065000000    -4.180000000
O     0.757000000     1.840000000    -4.114000000
H     1.062000000     2.676000000    -4.466000000
H    -0.087000000     2.044000000    -3.711000000
O    -5.917000000     3.104000000    -4.513000000
H    -5.724000000     2.348000000    -5.067000000
H    -6.234000000     2.726000000    -3.693000000
O    -5.658000000    -0.100000000    -2.998000000
H    -4.901000000     0.224000000    -2.510000000
H    -5.614000000    -1.051000000    -2.904000000
O    -2.915000000    -5.956000000    -1.444000000
H    -2.394000000    -5.792000000    -0.659000000
H    -3.707000000    -5.432000000    -1.321000000
O    -5.544000000     0.434000000     3.146000000
H    -6.082000000    -0.330000000     2.938000000
H    -5.048000000     0.173000000     3.922000000
O     2.682000000    -1.511000000     3.004000000
H     2.058000000    -0.876000000     3.358000000
H     3.471000000    -0.998000000     2.828000000
O     3.528000000    -4.471000000    -3.276000000
H     2.778000000    -4.932000000    -2.899000000
H     3.690000000    -4.917000000    -4.107000000
O    -6.995000000     4.815000000     1.348000000
H    -6.668000000     3.920000000     1.262000000
H    -7.425000000     4.832000000     2.202000000
O     5.179000000    -5.861000000     1.086000000
H     4.617000000    -5.180000000     0.717000000
H     5.188000000    -6.550000000     0.421000000
O    -0.116000000    -0.895000000    -3.977000000
H    -1.065000000    -0.916000000    -3.859000000
H     0.081000000     0.021000000    -4.175000000
O     3.833000000     5.516000000    -0.068000000
H     3.477000000     4.852000000    -0.659000000
H     4.613000000     5.108000000     0.309000000
O    -5.120000000    -1.645000000     0.141000000
H    -4.708000000    -0.909000000    -0.312000000
H    -5.266000000    -1.326000000     1.031000000
O    -5.188000000    -4.256000000    -0.636000000
H    -5.278000000    -3.379000000    -0.263000000
H    -6.080000000    -4.603000000    -0.648000000
O    -6.974000000     2.356000000    -2.135000000
H    -6.940000000     2.687000000    -1.237000000
H    -6.639000000     1.462000000    -2.073000000
O    -2.481000000     0.555000000    -5.705000000
H    -3.317000000     0.766000000    -6.121000000
H    -2.707000000    -0.066000000    -5.013000000
O    -2.663000000    -1.027000000    -3.634000000
H    -2.774000000    -1.940000000    -3.367000000
H    -2.863000000    -0.521000000    -2.846000000
O    -2.762000000    -5.225000000     1.166000000
H    -3.001000000    -4.457000000     1.685000000
H    -3.472000000    -5.848000000     1.318000000
