158
-3016.96022
C    -0.989000000    -1.068000000    -0.332000000
H    -1.608000000    -1.962000000    -0.338000000
C     0.292000000    -1.339000000     0.283000000
H     0.525000000    -2.360000000     0.575000000
C     1.083000000    -0.223000000     0.565000000
H     1.968000000    -0.354000000     1.197000000
C     0.701000000     1.078000000     0.172000000
H     1.371000000     1.893000000     0.434000000
C    -0.500000000     1.238000000    -0.558000000
H    -0.726000000     2.264000000    -0.839000000
C    -1.379000000     0.208000000    -0.738000000
C    -2.787000000     0.434000000    -1.339000000
O    -3.497000000    -0.580000000    -1.512000000
O    -3.148000000     1.542000000    -1.611000000
O    -5.210000000     4.965000000    -2.975000000
H    -5.988000000     5.487000000    -2.778000000
H    -4.487000000     5.590000000    -2.941000000
O     6.543000000    -1.175000000    -0.113000000
H     6.199000000    -2.061000000    -0.228000000
H     6.086000000    -0.839000000     0.659000000
O     1.037000000    -1.216000000    -2.521000000
H     0.707000000    -1.192000000    -1.623000000
H     0.332000000    -0.837000000    -3.046000000
O     4.148000000    -2.694000000     3.652000000
H     4.085000000    -3.186000000     4.470000000
H     3.716000000    -1.861000000     3.840000000
O    -7.804000000     0.122000000     1.278000000
H    -8.401000000    -0.580000000     1.538000000
H    -7.034000000    -0.333000000     0.937000000
O    -1.779000000     3.377000000    -3.206000000
H    -1.520000000     3.954000000    -2.487000000
H    -2.237000000     2.653000000    -2.779000000
O     0.814000000    -5.345000000    -1.943000000
H     0.322000000    -4.932000000    -2.653000000
H     0.588000000    -6.273000000    -2.003000000
O     2.309000000     3.419000000     4.203000000
H     1.357000000     3.320000000     4.189000000
H     2.630000000     2.599000000     4.578000000
O     7.107000000     2.251000000     1.133000000
H     6.889000000     2.999000000     1.689000000
H     6.321000000     2.108000000     0.605000000
O     4.128000000     1.611000000     1.197000000
H     3.974000000     2.507000000     1.496000000
H     3.423000000     1.443000000     0.572000000
O     5.527000000    -0.212000000     2.571000000
H     4.775000000    -0.771000000     2.765000000
H     5.143000000     0.602000000     2.247000000
O    -7.377000000    -1.748000000    -2.216000000
H    -7.212000000    -1.767000000    -1.273000000
H    -8.233000000    -2.164000000    -2.318000000
O    -0.666000000    -5.304000000     2.092000000
H     0.051000000    -5.662000000     1.569000000
H    -0.301000000    -4.513000000     2.488000000
O    -0.979000000    -0.223000000    -3.966000000
H    -1.547000000     0.332000000    -4.500000000
H    -1.517000000    -0.987000000    -3.760000000
O    -1.153000000     5.233000000    -1.077000000
H    -1.792000000     5.810000000    -0.658000000
H    -0.320000000     5.458000000    -0.663000000
O    -2.275000000     4.492000000     2.519000000
H    -2.530000000     5.345000000     2.167000000
H    -2.495000000     3.871000000     1.825000000
O    -0.260000000     2.934000000     4.043000000
H    -1.059000000     2.522000000     4.371000000
H    -0.447000000     3.119000000     3.123000000
O    -7.740000000     2.471000000    -0.095000000
H    -6.950000000     2.482000000    -0.635000000
H    -7.737000000     1.607000000     0.316000000
O     5.332000000    -3.605000000    -1.063000000
H     4.609000000    -4.228000000    -0.979000000
H     5.371000000    -3.409000000    -1.999000000
O     1.591000000    -6.211000000     1.089000000
H     2.127000000    -5.878000000     0.370000000
H     2.040000000    -5.913000000     1.880000000
O    -5.624000000     4.552000000     0.639000000
H    -6.233000000     4.586000000    -0.098000000
H    -6.180000000     4.642000000     1.413000000
O     4.076000000     1.282000000     5.351000000
H     4.939000000     0.945000000     5.109000000
H     4.019000000     1.139000000     6.295000000
O     0.960000000    -3.968000000     3.727000000
H     1.278000000    -4.442000000     4.495000000
H     1.654000000    -3.339000000     3.529000000
O    -2.035000000    -4.219000000    -2.489000000
H    -2.747000000    -4.659000000    -2.953000000
H    -2.076000000    -4.568000000    -1.599000000
O     3.402000000    -5.492000000    -1.246000000
H     2.589000000    -5.404000000    -1.743000000
H     3.500000000    -6.434000000    -1.110000000
O    -3.385000000     3.106000000     0.519000000
H    -4.140000000     3.659000000     0.319000000
H    -3.444000000     2.384000000    -0.106000000
O    -1.709000000    -2.516000000     4.461000000
H    -0.878000000    -2.706000000     4.026000000
H    -1.541000000    -1.717000000     4.961000000
O    -0.233000000    -0.287000000     5.833000000
H    -0.146000000    -0.145000000     6.775000000
H    -0.792000000     0.430000000     5.533000000
O    -1.499000000     2.202000000    -5.610000000
H    -1.495000000     2.598000000    -4.738000000
H    -1.828000000     2.893000000    -6.185000000
O     2.333000000     4.082000000    -2.276000000
H     3.163000000     4.447000000    -2.583000000
H     1.669000000     4.506000000    -2.820000000
O    -4.049000000     3.701000000    -5.178000000
H    -3.484000000     3.329000000    -4.500000000
H    -4.813000000     4.024000000    -4.701000000
O     2.683000000    -1.522000000     6.949000000
H     2.504000000    -1.317000000     6.032000000
H     2.190000000    -0.866000000     7.442000000
O    -5.135000000    -0.785000000    -3.511000000
H    -4.487000000    -0.437000000    -2.899000000
H    -5.889000000    -1.003000000    -2.964000000
O    -3.961000000    -1.249000000     3.186000000
H    -4.519000000    -1.160000000     3.959000000
H    -3.480000000    -2.063000000     3.330000000
O     2.247000000    -0.573000000     4.201000000
H     2.628000000     0.305000000     4.205000000
H     1.326000000    -0.436000000     4.422000000
O    -5.511000000     2.636000000    -1.787000000
H    -4.672000000     2.207000000    -1.953000000
H    -5.487000000     3.425000000    -2.328000000
O    -0.041000000    -4.271000000    -4.654000000
H    -0.677000000    -3.651000000    -4.296000000
H    -0.521000000    -5.097000000    -4.718000000
O     1.697000000     5.044000000     0.079000000
H     1.916000000     4.575000000    -0.726000000
H     2.403000000     4.819000000     0.686000000
O    -5.141000000    -0.635000000     0.736000000
H    -4.567000000    -0.568000000    -0.027000000
H    -4.572000000    -0.957000000     1.436000000
O    -4.555000000    -3.303000000    -0.758000000
H    -5.499000000    -3.260000000    -0.606000000
H    -4.296000000    -2.395000000    -0.914000000
O     3.536000000    -1.432000000    -3.157000000
H     2.768000000    -1.560000000    -2.601000000
H     3.478000000    -0.519000000    -3.440000000
O     0.373000000     4.808000000    -4.203000000
H    -0.163000000     4.143000000    -3.770000000
H    -0.257000000     5.354000000    -4.674000000
O    -4.590000000     1.747000000     3.089000000
H    -4.511000000     0.793000000     3.071000000
H    -5.175000000     1.952000000     2.359000000
O     2.418000000     1.716000000    -3.536000000
H     1.670000000     1.134000000    -3.403000000
H     2.139000000     2.553000000    -3.166000000
O    -4.391000000    -6.106000000    -1.616000000
H    -4.398000000    -6.089000000    -2.573000000
H    -4.197000000    -5.203000000    -1.363000000
O    -2.787000000    -2.224000000    -4.272000000
H    -3.608000000    -1.854000000    -3.949000000
H    -2.534000000    -2.863000000    -3.604000000
O     3.534000000     4.096000000     2.019000000
H     3.107000000     3.791000000     2.819000000
H     4.081000000     4.828000000     2.303000000
O    -4.136000000    -4.059000000     1.791000000
H    -4.362000000    -3.889000000     0.877000000
H    -3.678000000    -4.899000000     1.772000000
