158
-3058.75692
C     1.044000000     0.438000000     0.930000000
H     1.752000000     0.865000000     1.636000000
C    -0.316000000     0.745000000     1.020000000
H    -0.679000000     1.336000000     1.857000000
C    -1.215000000     0.246000000     0.088000000
H    -2.232000000     0.535000000     0.143000000
C    -0.722000000    -0.537000000    -0.947000000
H    -1.442000000    -1.028000000    -1.597000000
C     0.642000000    -0.844000000    -1.056000000
H     1.017000000    -1.555000000    -1.788000000
C     1.530000000    -0.281000000    -0.135000000
C     3.003000000    -0.602000000    -0.284000000
O     3.316000000    -1.472000000    -1.059000000
O     3.758000000     0.009000000     0.396000000
O    -4.055000000    -0.714000000     1.821000000
H    -3.246000000    -0.695000000     2.332000000
H    -3.934000000    -1.439000000     1.208000000
O     2.678000000    -3.951000000    -1.991000000
H     2.950000000    -3.189000000    -1.480000000
H     2.375000000    -3.587000000    -2.823000000
O    -4.277000000    -1.317000000    -2.175000000
H    -4.316000000    -0.373000000    -2.022000000
H    -3.563000000    -1.621000000    -1.615000000
O    -4.941000000     1.862000000     3.518000000
H    -4.959000000     1.341000000     4.321000000
H    -5.452000000     1.352000000     2.890000000
O     0.723000000     0.827000000    -5.114000000
H     1.318000000     1.152000000    -4.439000000
H     1.293000000     0.393000000    -5.748000000
O     0.373000000    -1.098000000     5.066000000
H     0.412000000    -0.425000000     5.746000000
H     1.263000000    -1.447000000     5.024000000
O    -5.111000000    -2.075000000    -4.712000000
H    -5.458000000    -2.875000000    -4.317000000
H    -4.735000000    -1.589000000    -3.978000000
O    -2.026000000    -0.298000000     4.000000000
H    -1.094000000    -0.512000000     4.038000000
H    -2.053000000     0.659000000     4.025000000
O    -5.710000000     1.469000000    -2.759000000
H    -5.021000000     1.903000000    -2.256000000
H    -6.193000000     2.185000000    -3.172000000
O     4.811000000     2.198000000     1.046000000
H     4.471000000     1.371000000     1.389000000
H     4.294000000     2.361000000     0.257000000
O     5.143000000     4.916000000    -0.780000000
H     4.505000000     4.208000000    -0.691000000
H     5.838000000     4.546000000    -1.324000000
O    -0.437000000     4.011000000     2.546000000
H     0.470000000     3.753000000     2.378000000
H    -0.751000000     3.377000000     3.190000000
O     5.718000000     3.075000000     3.479000000
H     5.611000000     2.210000000     3.875000000
H     5.564000000     2.932000000     2.545000000
O     2.992000000     0.263000000    -3.398000000
H     3.262000000    -0.185000000    -2.596000000
H     3.732000000     0.829000000    -3.616000000
O    -1.222000000    -2.525000000    -4.383000000
H    -1.280000000    -2.507000000    -5.339000000
H    -0.326000000    -2.248000000    -4.192000000
O    -1.869000000    -4.691000000    -2.810000000
H    -1.545000000    -5.399000000    -3.366000000
H    -1.699000000    -3.895000000    -3.314000000
O    -0.964000000    -3.486000000     3.614000000
H    -0.656000000    -2.909000000     4.313000000
H    -0.364000000    -3.321000000     2.886000000
O     5.779000000    -2.122000000    -1.512000000
H     5.855000000    -1.954000000    -2.451000000
H     4.852000000    -1.982000000    -1.318000000
O    -1.794000000     3.699000000     0.116000000
H    -2.218000000     4.521000000     0.359000000
H    -1.213000000     3.503000000     0.851000000
O     6.562000000    -0.293000000     0.304000000
H     6.377000000    -0.943000000    -0.374000000
H     5.727000000     0.156000000     0.439000000
O    -1.312000000     1.229000000    -3.271000000
H    -0.976000000     0.555000000    -2.681000000
H    -1.124000000     0.894000000    -4.148000000
O     8.184000000     1.946000000     0.505000000
H     8.607000000     2.268000000    -0.291000000
H     7.659000000     1.201000000     0.213000000
O    -1.745000000     2.427000000     4.291000000
H    -1.520000000     2.383000000     5.220000000
H    -2.553000000     2.939000000     4.264000000
O     2.863000000    -2.462000000     3.109000000
H     3.653000000    -1.924000000     3.069000000
H     3.185000000    -3.363000000     3.112000000
O     2.906000000     2.674000000     4.726000000
H     3.777000000     2.340000000     4.942000000
H     2.364000000     2.432000000     5.477000000
O    -4.161000000     4.589000000     4.644000000
H    -4.750000000     3.912000000     4.309000000
H    -4.349000000     4.627000000     5.582000000
O     5.170000000     0.601000000     4.778000000
H     5.097000000    -0.111000000     4.143000000
H     4.808000000     0.239000000     5.587000000
O    -3.103000000     5.212000000     2.361000000
H    -2.197000000     4.987000000     2.571000000
H    -3.544000000     5.245000000     3.210000000
O    -3.880000000     1.228000000    -5.373000000
H    -4.499000000     0.724000000    -5.902000000
H    -4.375000000     1.467000000    -4.589000000
O     2.636000000     4.272000000     2.472000000
H     2.916000000     3.867000000     3.293000000
H     2.622000000     3.552000000     1.842000000
O     0.590000000    -2.893000000     1.519000000
H     0.561000000    -2.275000000     0.788000000
H     1.187000000    -2.490000000     2.149000000
O    -5.543000000     4.118000000     1.030000000
H    -5.367000000     3.177000000     1.030000000
H    -4.751000000     4.510000000     1.397000000
O     7.741000000    -3.789000000    -0.708000000
H     7.068000000    -3.132000000    -0.886000000
H     8.554000000    -3.288000000    -0.642000000
O    -1.744000000    -5.302000000     0.073000000
H    -1.128000000    -4.622000000    -0.198000000
H    -2.130000000    -5.615000000    -0.745000000
O    -3.860000000    -3.237000000     4.500000000
H    -3.048000000    -3.543000000     4.097000000
H    -4.103000000    -2.464000000     3.991000000
O    -7.925000000    -0.025000000     2.039000000
H    -7.161000000     0.238000000     1.527000000
H    -8.273000000     0.796000000     2.389000000
O    -6.697000000    -2.092000000     3.580000000
H    -6.392000000    -2.676000000     2.886000000
H    -7.238000000    -1.445000000     3.127000000
O     0.951000000     3.268000000    -2.973000000
H     0.205000000     2.671000000    -2.913000000
H     0.583000000     4.077000000    -3.329000000
O     3.199000000     2.721000000    -1.163000000
H     3.101000000     1.838000000    -1.519000000
H     2.429000000     3.194000000    -1.480000000
O     1.798000000    -5.168000000     0.687000000
H     1.297000000    -4.439000000     1.054000000
H     1.778000000    -5.020000000    -0.258000000
O    -5.901000000     1.151000000     0.857000000
H    -6.123000000     1.085000000    -0.071000000
H    -5.234000000     0.478000000     0.993000000
O     4.832000000    -5.117000000    -3.623000000
H     5.738000000    -5.077000000    -3.317000000
H     4.351000000    -4.545000000    -3.024000000
O    -7.292000000    -0.692000000    -1.556000000
H    -6.666000000    -1.416000000    -1.566000000
H    -6.938000000    -0.060000000    -2.182000000
O     5.087000000    -1.074000000     2.445000000
H     4.382000000    -1.003000000     1.801000000
H     5.870000000    -0.787000000     1.975000000
O     2.487000000    -2.250000000    -4.179000000
H     2.937000000    -2.501000000    -4.986000000
H     2.741000000    -1.338000000    -4.037000000
O     6.018000000    -1.541000000    -4.173000000
H     6.531000000    -1.928000000    -4.882000000
H     6.077000000    -0.598000000    -4.321000000
O    -3.449000000     2.398000000    -1.683000000
H    -2.754000000     2.077000000    -2.257000000
H    -2.987000000     2.842000000    -0.972000000
O    -3.455000000    -3.030000000     0.322000000
H    -3.066000000    -3.849000000     0.628000000
H    -4.185000000    -3.304000000    -0.234000000
