158
-3040.72805
C     0.813000000    -0.140000000     1.162000000
H     1.605000000    -0.282000000     1.893000000
C     1.299000000     0.216000000    -0.089000000
H     2.345000000     0.469000000    -0.247000000
C     0.352000000     0.430000000    -1.079000000
H     0.741000000     0.741000000    -2.022000000
C    -1.004000000     0.064000000    -0.844000000
H    -1.740000000     0.249000000    -1.622000000
C    -1.413000000    -0.254000000     0.439000000
H    -2.493000000    -0.348000000     0.521000000
C    -0.480000000    -0.386000000     1.465000000
C    -0.906000000    -1.007000000     2.792000000
O    -2.085000000    -1.370000000     2.882000000
O    -0.084000000    -1.162000000     3.682000000
O     3.162000000    -2.640000000     1.715000000
H     2.941000000    -2.327000000     2.592000000
H     3.378000000    -3.564000000     1.837000000
O    -4.168000000    -2.323000000     4.124000000
H    -3.993000000    -3.145000000     4.581000000
H    -3.351000000    -2.122000000     3.669000000
O     3.050000000     3.032000000     1.685000000
H     2.151000000     3.056000000     2.012000000
H     3.459000000     2.308000000     2.160000000
O     2.729000000     1.131000000     7.036000000
H     2.361000000     1.267000000     6.162000000
H     1.977000000     0.894000000     7.578000000
O    -4.917000000     0.646000000     5.482000000
H    -4.932000000     0.213000000     4.629000000
H    -4.000000000     0.609000000     5.753000000
O    -3.181000000    -2.617000000    -1.661000000
H    -2.237000000    -2.773000000    -1.652000000
H    -3.455000000    -2.751000000    -0.754000000
O     3.599000000     0.550000000    -6.371000000
H     4.532000000     0.581000000    -6.580000000
H     3.225000000    -0.034000000    -7.031000000
O    -4.072000000     2.546000000     3.093000000
H    -4.399000000     1.647000000     3.091000000
H    -3.360000000     2.544000000     2.454000000
O     3.052000000     2.528000000    -4.176000000
H     3.630000000     2.309000000    -3.445000000
H     3.387000000     2.012000000    -4.909000000
O     0.612000000    -6.286000000     3.473000000
H     0.122000000    -5.729000000     2.869000000
H     1.442000000    -5.827000000     3.604000000
O    -2.063000000     5.079000000    -5.805000000
H    -2.920000000     4.816000000    -5.470000000
H    -1.633000000     4.255000000    -6.035000000
O     4.375000000    -2.912000000    -0.796000000
H     3.589000000    -2.802000000    -1.331000000
H     4.082000000    -2.736000000     0.098000000
O     3.292000000     5.907000000    -1.888000000
H     3.100000000     4.998000000    -1.656000000
H     3.458000000     5.883000000    -2.831000000
O     0.255000000     4.244000000    -0.654000000
H     0.618000000     3.802000000    -1.422000000
H     0.906000000     4.106000000     0.033000000
O    -4.733000000     2.077000000    -0.196000000
H    -4.954000000     2.409000000     0.674000000
H    -5.296000000     1.312000000    -0.311000000
O    -4.700000000     3.608000000    -2.423000000
H    -5.209000000     3.155000000    -3.095000000
H    -4.648000000     2.983000000    -1.700000000
O    -1.249000000     2.808000000     6.262000000
H    -0.362000000     3.167000000     6.272000000
H    -1.195000000     2.054000000     5.674000000
O     1.408000000     1.113000000     4.517000000
H     0.676000000     0.496000000     4.514000000
H     1.094000000     1.860000000     4.008000000
O    -5.138000000    -0.134000000     3.014000000
H    -5.738000000    -0.302000000     2.287000000
H    -4.826000000    -1.002000000     3.271000000
O     4.021000000     1.146000000     3.220000000
H     3.243000000     0.952000000     3.742000000
H     4.610000000     1.596000000     3.826000000
O    -0.712000000    -2.887000000     5.752000000
H    -0.307000000    -2.466000000     4.994000000
H    -1.603000000    -3.090000000     5.466000000
O     2.043000000    -2.636000000    -2.694000000
H     2.162000000    -3.242000000    -3.425000000
H     2.367000000    -1.797000000    -3.022000000
O    -5.789000000    -2.268000000    -1.796000000
H    -6.111000000    -1.581000000    -2.380000000
H    -4.853000000    -2.324000000    -1.987000000
O    -3.721000000    -2.912000000     1.189000000
H    -3.251000000    -2.330000000     1.786000000
H    -4.484000000    -3.203000000     1.689000000
O     3.358000000     3.368000000    -0.943000000
H     3.940000000     2.711000000    -1.325000000
H     3.251000000     3.093000000    -0.033000000
O    -1.863000000     2.428000000     1.457000000
H    -2.385000000     2.993000000     0.887000000
H    -1.903000000     1.567000000     1.041000000
O     2.951000000     5.374000000    -4.739000000
H     2.684000000     4.525000000    -4.388000000
H     2.134000000     5.866000000    -4.822000000
O    -0.167000000    -2.969000000    -1.082000000
H     0.298000000    -2.354000000    -0.514000000
H     0.178000000    -2.794000000    -1.958000000
O     0.503000000     3.113000000     2.740000000
H     0.508000000     4.068000000     2.671000000
H    -0.313000000     2.847000000     2.317000000
O     3.043000000    -0.308000000    -3.914000000
H     3.215000000    -0.058000000    -4.822000000
H     2.138000000    -0.037000000    -3.759000000
O     4.490000000     1.161000000    -2.139000000
H     5.331000000     0.921000000    -1.749000000
H     4.226000000     0.385000000    -2.634000000
O    -2.515000000     4.535000000    -0.298000000
H    -3.007000000     4.748000000    -1.092000000
H    -1.620000000     4.387000000    -0.604000000
O    -2.081000000     0.252000000     5.287000000
H    -2.017000000    -0.157000000     4.425000000
H    -1.776000000    -0.421000000     5.895000000
O    -3.933000000     0.249000000    -5.613000000
H    -3.411000000     0.178000000    -6.412000000
H    -3.906000000    -0.627000000    -5.230000000
O     2.936000000    -2.900000000    -6.336000000
H     2.882000000    -3.102000000    -5.402000000
H     3.124000000    -3.742000000    -6.752000000
O     1.360000000    -4.989000000     6.294000000
H     1.051000000    -5.240000000     7.164000000
H     0.665000000    -4.431000000     5.944000000
O    -6.619000000    -0.764000000     0.827000000
H    -7.049000000     0.013000000     0.469000000
H    -6.472000000    -1.327000000     0.068000000
O    -1.097000000     1.531000000    -5.030000000
H    -1.077000000     1.844000000    -5.935000000
H    -1.842000000     0.932000000    -5.000000000
O    -0.156000000    -2.221000000     8.661000000
H    -0.268000000    -2.581000000     7.782000000
H     0.774000000    -2.345000000     8.854000000
O    -0.839000000    -4.665000000     1.009000000
H    -1.733000000    -4.351000000     1.149000000
H    -0.464000000    -4.049000000     0.379000000
O     2.580000000    -1.760000000     4.175000000
H     2.596000000    -1.634000000     5.124000000
H     1.687000000    -1.529000000     3.918000000
O    -0.535000000     6.134000000    -3.002000000
H    -1.431000000     6.090000000    -2.669000000
H    -0.185000000     5.253000000    -2.865000000
O     4.953000000    -0.211000000     1.178000000
H     4.268000000    -0.751000000     0.783000000
H     4.523000000     0.216000000     1.919000000
O     0.358000000     3.287000000    -3.422000000
H     1.205000000     2.875000000    -3.587000000
H    -0.267000000     2.757000000    -3.917000000
O    -1.298000000    -4.005000000    -4.574000000
H    -0.830000000    -4.265000000    -5.367000000
H    -1.811000000    -3.241000000    -4.838000000
O     6.918000000    -1.390000000     2.858000000
H     6.902000000    -1.093000000     3.767000000
H     6.288000000    -0.826000000     2.410000000
O     6.917000000     1.006000000    -0.458000000
H     6.469000000     0.405000000     0.137000000
H     7.331000000     1.649000000     0.117000000
O    -3.797000000    -1.973000000    -4.348000000
H    -4.423000000    -2.604000000    -4.704000000
H    -3.532000000    -2.347000000    -3.508000000
