158
-3029.27449
C     0.355000000    -1.434000000    -0.049000000
H     0.729000000    -2.455000000    -0.074000000
C     1.203000000    -0.367000000     0.251000000
H     2.220000000    -0.516000000     0.606000000
C     0.713000000     0.978000000     0.331000000
H     1.331000000     1.804000000     0.631000000
C    -0.604000000     1.198000000     0.013000000
H    -0.956000000     2.224000000     0.083000000
C    -1.461000000     0.141000000    -0.339000000
H    -2.508000000     0.315000000    -0.574000000
C    -0.974000000    -1.172000000    -0.407000000
C    -1.834000000    -2.374000000    -0.854000000
O    -1.303000000    -3.450000000    -1.138000000
O    -3.019000000    -2.276000000    -0.979000000
O    -1.472000000     0.658000000    -4.626000000
H    -2.056000000     0.204000000    -4.018000000
H    -1.056000000     1.337000000    -4.096000000
O    -2.350000000    -7.907000000    -3.379000000
H    -2.154000000    -7.162000000    -2.812000000
H    -2.597000000    -8.609000000    -2.777000000
O    -7.845000000    -0.742000000     0.372000000
H    -6.899000000    -0.736000000     0.221000000
H    -7.935000000    -0.729000000     1.325000000
O    -0.340000000    -3.847000000     3.410000000
H     0.516000000    -3.467000000     3.608000000
H    -0.203000000    -4.330000000     2.595000000
O    -0.390000000    -0.386000000     3.192000000
H    -0.313000000    -0.751000000     2.311000000
H     0.125000000     0.420000000     3.163000000
O    -1.035000000    -2.014000000    -4.679000000
H    -0.992000000    -1.063000000    -4.584000000
H    -0.312000000    -2.342000000    -4.145000000
O     2.108000000    -6.592000000     0.883000000
H     2.935000000    -6.863000000     1.281000000
H     1.436000000    -6.938000000     1.471000000
O    -0.539000000     8.206000000    -0.421000000
H    -0.399000000     7.259000000    -0.388000000
H     0.089000000     8.562000000     0.208000000
O    -3.344000000    -0.242000000    -2.903000000
H    -4.136000000    -0.543000000    -3.350000000
H    -3.226000000    -0.861000000    -2.183000000
O     6.281000000    -2.446000000     0.158000000
H     6.605000000    -2.873000000     0.951000000
H     5.690000000    -3.087000000    -0.236000000
O     2.686000000    -3.725000000     3.510000000
H     3.502000000    -3.734000000     3.009000000
H     2.966000000    -3.763000000     4.425000000
O     5.154000000     2.348000000     0.510000000
H     5.185000000     1.432000000     0.788000000
H     5.530000000     2.344000000    -0.370000000
O    -2.857000000    -2.990000000     2.502000000
H    -2.052000000    -3.317000000     2.903000000
H    -2.816000000    -3.299000000     1.597000000
O     2.676000000    -4.468000000    -1.803000000
H     2.321000000    -5.145000000    -1.227000000
H     3.625000000    -4.541000000    -1.702000000
O     2.892000000    -0.886000000     3.320000000
H     3.398000000    -0.655000000     2.541000000
H     2.958000000    -1.839000000     3.374000000
O    -0.445000000     5.445000000    -0.840000000
H    -1.398000000     5.353000000    -0.816000000
H    -0.143000000     5.022000000    -0.037000000
O    -5.006000000    -0.828000000     0.241000000
H    -4.475000000    -1.526000000    -0.144000000
H    -4.638000000    -0.701000000     1.115000000
O    -2.848000000     4.483000000    -0.847000000
H    -3.463000000     4.893000000    -1.455000000
H    -3.137000000     3.572000000    -0.792000000
O     2.437000000    -3.053000000    -5.033000000
H     2.092000000    -2.413000000    -5.657000000
H     1.919000000    -2.917000000    -4.240000000
O    -0.869000000     2.894000000     3.391000000
H    -0.185000000     3.095000000     2.752000000
H    -0.510000000     3.194000000     4.227000000
O    -2.369000000    -6.091000000     2.965000000
H    -2.048000000    -6.903000000     3.357000000
H    -1.671000000    -5.821000000     2.368000000
O     1.698000000    -0.092000000     5.807000000
H     0.810000000    -0.451000000     5.807000000
H     2.012000000    -0.229000000     4.913000000
O     4.363000000     1.963000000     4.837000000
H     5.040000000     1.324000000     5.059000000
H     4.180000000     1.806000000     3.910000000
O     0.741000000     4.854000000     1.696000000
H     1.629000000     4.496000000     1.678000000
H     0.717000000     5.396000000     2.484000000
O     3.264000000     4.152000000     1.371000000
H     3.846000000     3.457000000     1.064000000
H     3.326000000     4.831000000     0.699000000
O    -2.873000000     0.924000000     4.016000000
H    -2.571000000     1.831000000     4.047000000
H    -2.070000000     0.406000000     3.956000000
O    -3.083000000     4.023000000     2.665000000
H    -2.229000000     3.754000000     3.003000000
H    -2.963000000     4.065000000     1.716000000
O     5.735000000     2.885000000    -2.328000000
H     4.871000000     2.474000000    -2.362000000
H     6.252000000     2.412000000    -2.980000000
O    -0.664000000    -5.062000000     0.744000000
H    -0.985000000    -4.549000000     0.003000000
H     0.064000000    -5.570000000     0.386000000
O     0.900000000     0.480000000    -2.727000000
H     0.696000000     0.403000000    -1.795000000
H     0.492000000     1.303000000    -2.994000000
O     5.069000000    -0.344000000     1.315000000
H     5.311000000    -1.106000000     0.789000000
H     5.815000000    -0.209000000     1.899000000
O    -4.573000000     2.241000000    -2.766000000
H    -4.540000000     2.229000000    -1.810000000
H    -4.009000000     1.516000000    -3.035000000
O     0.693000000    -3.165000000    -2.974000000
H    -0.033000000    -3.232000000    -2.355000000
H     1.469000000    -3.380000000    -2.456000000
O    -4.395000000     2.221000000    -0.122000000
H    -5.057000000     1.538000000    -0.229000000
H    -4.681000000     2.713000000     0.648000000
O    -4.595000000    -0.950000000     3.131000000
H    -3.932000000    -0.297000000     3.354000000
H    -4.094000000    -1.741000000     2.931000000
O    -1.786000000     6.979000000     2.452000000
H    -0.993000000     6.472000000     2.625000000
H    -2.232000000     7.023000000     3.297000000
O    -5.899000000    -0.974000000    -4.336000000
H    -6.139000000    -0.308000000    -4.979000000
H    -6.590000000    -1.633000000    -4.404000000
O    -0.453000000     3.097000000    -2.795000000
H    -0.104000000     3.770000000    -2.209000000
H    -1.080000000     3.563000000    -3.348000000
O     3.722000000     4.144000000     6.146000000
H     3.839000000     3.294000000     5.723000000
H     3.541000000     4.748000000     5.426000000
O    -4.964000000    -5.377000000     2.749000000
H    -4.860000000    -4.966000000     1.890000000
H    -4.075000000    -5.621000000     3.007000000
O    -2.137000000    -5.626000000    -2.017000000
H    -1.755000000    -4.842000000    -1.622000000
H    -3.030000000    -5.368000000    -2.246000000
O     4.133000000     5.670000000    -0.755000000
H     5.014000000     5.791000000    -1.107000000
H     3.643000000     6.431000000    -1.069000000
O     3.751000000     5.585000000     3.650000000
H     3.414000000     5.077000000     2.912000000
H     4.283000000     6.270000000     3.246000000
O    -5.040000000    -4.731000000    -2.872000000
H    -5.952000000    -4.484000000    -2.719000000
H    -4.776000000    -4.213000000    -3.633000000
O    -2.732000000    -4.218000000    -4.719000000
H    -2.138000000    -4.551000000    -4.047000000
H    -2.408000000    -3.338000000    -4.911000000
O    -4.365000000    -4.624000000     0.047000000
H    -4.017000000    -3.890000000    -0.460000000
H    -4.988000000    -5.048000000    -0.542000000
O     3.767000000     1.019000000    -2.668000000
H     4.082000000     0.282000000    -3.191000000
H     2.840000000     0.831000000    -2.524000000
O    -2.655000000    -7.181000000     0.211000000
H    -2.885000000    -6.376000000     0.676000000
H    -2.256000000    -6.880000000    -0.606000000
