158
-3008.32699
C    -0.598000000    -1.233000000    -0.495000000
H    -0.858000000    -2.155000000    -1.009000000
C     0.630000000    -0.726000000    -0.882000000
H     1.213000000    -1.244000000    -1.639000000
C     1.024000000     0.514000000    -0.395000000
H     1.947000000     1.038000000    -0.721000000
C     0.270000000     1.201000000     0.498000000
H     0.605000000     2.164000000     0.876000000
C    -0.863000000     0.553000000     1.078000000
H    -1.492000000     1.162000000     1.723000000
C    -1.376000000    -0.625000000     0.518000000
C    -2.650000000    -1.249000000     0.976000000
O    -3.071000000    -2.166000000     0.280000000
O    -3.135000000    -0.960000000     2.031000000
O     1.550000000     2.275000000    -3.761000000
H     0.676000000     2.650000000    -3.876000000
H     1.586000000     1.554000000    -4.389000000
O    -5.596000000    -2.825000000    -3.929000000
H    -4.733000000    -2.658000000    -3.550000000
H    -6.199000000    -2.315000000    -3.388000000
O    -5.113000000    -4.087000000     0.823000000
H    -4.566000000    -3.318000000     0.660000000
H    -5.969000000    -3.727000000     1.053000000
O    -0.076000000    -2.976000000     3.053000000
H     0.640000000    -2.874000000     2.425000000
H     0.041000000    -2.252000000     3.668000000
O    -2.258000000    -5.203000000     0.200000000
H    -1.630000000    -5.137000000    -0.520000000
H    -2.457000000    -4.295000000     0.428000000
O    -7.250000000    -0.148000000     0.498000000
H    -6.364000000     0.158000000     0.689000000
H    -7.660000000     0.581000000     0.032000000
O    -4.028000000     3.778000000     3.436000000
H    -4.472000000     3.095000000     2.933000000
H    -4.383000000     3.693000000     4.321000000
O     6.123000000    -2.219000000    -2.842000000
H     5.372000000    -1.703000000    -2.547000000
H     5.787000000    -3.113000000    -2.910000000
O     4.579000000     2.840000000    -1.165000000
H     4.258000000     3.472000000    -0.521000000
H     4.114000000     3.062000000    -1.971000000
O     3.503000000    -2.633000000    -1.679000000
H     2.793000000    -2.135000000    -2.085000000
H     3.067000000    -3.192000000    -1.037000000
O     6.060000000     1.199000000     2.213000000
H     5.466000000     0.772000000     1.595000000
H     5.916000000     0.739000000     3.040000000
O     1.955000000    -1.388000000     1.726000000
H     1.155000000    -0.946000000     1.442000000
H     2.498000000    -0.689000000     2.091000000
O     1.542000000     5.748000000     2.721000000
H     2.293000000     6.003000000     2.186000000
H     0.897000000     5.425000000     2.091000000
O    -2.032000000    -0.212000000     4.850000000
H    -2.698000000    -0.399000000     5.512000000
H    -2.444000000    -0.454000000     4.021000000
O     3.305000000    -5.154000000    -0.457000000
H     2.714000000    -5.882000000    -0.650000000
H     4.176000000    -5.489000000    -0.673000000
O    -1.322000000     3.512000000     2.863000000
H    -2.205000000     3.371000000     2.522000000
H    -0.826000000     3.844000000     2.114000000
O     3.425000000     0.617000000     3.073000000
H     3.907000000     1.435000000     2.950000000
H     3.095000000     0.666000000     3.970000000
O    -0.268000000     5.593000000     0.698000000
H    -0.018000000     6.272000000     0.071000000
H    -0.869000000     5.029000000     0.212000000
O     7.559000000     0.721000000    -1.316000000
H     6.620000000     0.742000000    -1.502000000
H     7.807000000     1.642000000    -1.233000000
O     3.226000000     5.169000000     0.253000000
H     3.643000000     5.815000000     0.823000000
H     2.748000000     5.692000000    -0.391000000
O    -3.039000000    -3.108000000     3.587000000
H    -2.112000000    -3.343000000     3.546000000
H    -3.134000000    -2.394000000     2.956000000
O     7.517000000    -1.365000000     1.171000000
H     8.046000000    -1.730000000     0.462000000
H     7.009000000    -0.668000000     0.757000000
O     1.446000000    -3.238000000    -4.484000000
H     1.200000000    -4.155000000    -4.608000000
H     0.614000000    -2.765000000    -4.489000000
O    -0.356000000     2.123000000     4.787000000
H    -1.004000000     1.428000000     4.909000000
H    -0.734000000     2.686000000     4.111000000
O     4.546000000     1.154000000    -5.081000000
H     5.318000000     1.113000000    -5.646000000
H     3.831000000     1.396000000    -5.670000000
O     0.474000000    -0.921000000     5.073000000
H    -0.421000000    -0.601000000     4.956000000
H     0.984000000    -0.137000000     5.276000000
O    -4.925000000    -6.471000000     2.246000000
H    -4.765000000    -5.631000000     1.816000000
H    -4.140000000    -6.987000000     2.062000000
O    -7.702000000    -2.990000000     0.788000000
H    -7.625000000    -2.056000000     0.984000000
H    -7.966000000    -3.388000000     1.617000000
O     4.581000000    -0.595000000     0.200000000
H     4.179000000    -0.761000000    -0.653000000
H     3.932000000    -0.901000000     0.833000000
O     4.206000000     0.268000000    -2.543000000
H     4.444000000     0.653000000    -3.386000000
H     4.178000000     1.011000000    -1.940000000
O    -6.372000000     0.719000000     4.049000000
H    -6.295000000     1.340000000     4.774000000
H    -6.897000000     1.179000000     3.395000000
O    -3.634000000     0.417000000    -2.972000000
H    -3.839000000     1.003000000    -2.244000000
H    -4.095000000     0.794000000    -3.721000000
O    -2.004000000     4.016000000    -0.401000000
H    -1.547000000     3.698000000    -1.179000000
H    -2.790000000     3.473000000    -0.346000000
O    -6.874000000    -1.481000000     5.634000000
H    -6.523000000    -0.755000000     5.117000000
H    -6.570000000    -2.267000000     5.181000000
O     3.191000000    -3.542000000     3.136000000
H     4.091000000    -3.343000000     2.879000000
H     2.664000000    -2.873000000     2.700000000
O    -1.081000000    -0.074000000    -4.074000000
H    -0.669000000     0.241000000    -3.270000000
H    -2.007000000    -0.166000000    -3.849000000
O    -2.379000000    -3.922000000    -4.395000000
H    -2.671000000    -3.322000000    -3.709000000
H    -2.247000000    -3.364000000    -5.162000000
O    -3.999000000    -5.088000000    -2.056000000
H    -3.525000000    -5.337000000    -1.263000000
H    -4.074000000    -4.135000000    -2.001000000
O     3.116000000     4.275000000    -3.218000000
H     2.515000000     4.982000000    -3.452000000
H     2.610000000     3.475000000    -3.356000000
O     3.908000000     3.430000000     3.116000000
H     2.962000000     3.572000000     3.078000000
H     4.281000000     4.175000000     2.644000000
O    -6.861000000    -1.917000000    -1.786000000
H    -7.119000000    -1.410000000    -1.016000000
H    -6.875000000    -2.827000000    -1.489000000
O     7.196000000     3.578000000    -0.773000000
H     6.334000000     3.306000000    -1.087000000
H     7.011000000     4.123000000    -0.008000000
O    -3.410000000    -2.255000000    -2.282000000
H    -3.359000000    -2.385000000    -1.335000000
H    -3.540000000    -1.313000000    -2.387000000
O    -1.185000000    -5.815000000    -2.424000000
H    -1.710000000    -6.585000000    -2.638000000
H    -1.629000000    -5.091000000    -2.866000000
O    -4.063000000     2.129000000    -0.105000000
H    -4.789000000     2.739000000    -0.233000000
H    -4.239000000     1.721000000     0.742000000
O    -5.603000000    -3.715000000     4.659000000
H    -4.772000000    -3.539000000     4.217000000
H    -5.381000000    -4.351000000     5.340000000
O     3.657000000    -2.155000000    -4.967000000
H     2.911000000    -2.690000000    -4.693000000
H     3.867000000    -1.625000000    -4.199000000
O    -4.966000000     0.765000000     1.952000000
H    -4.242000000     0.139000000     1.941000000
H    -5.386000000     0.631000000     2.802000000
