158
-3027.03785
C    -0.681000000    -1.092000000    -0.672000000
H    -1.200000000    -1.792000000    -1.321000000
C     0.442000000    -0.406000000    -1.205000000
H     0.811000000    -0.618000000    -2.205000000
C     1.038000000     0.619000000    -0.415000000
H     1.829000000     1.206000000    -0.842000000
C     0.441000000     0.909000000     0.828000000
H     0.827000000     1.677000000     1.494000000
C    -0.731000000     0.299000000     1.294000000
H    -1.040000000     0.507000000     2.315000000
C    -1.269000000    -0.721000000     0.548000000
C    -2.591000000    -1.392000000     0.982000000
O    -3.101000000    -2.266000000     0.322000000
O    -3.122000000    -1.161000000     2.058000000
O    -0.474000000     0.537000000    -5.627000000
H     0.083000000     1.173000000    -5.178000000
H    -1.363000000     0.757000000    -5.347000000
O    -5.230000000    -3.743000000     1.026000000
H    -4.469000000    -3.186000000     0.864000000
H    -5.271000000    -3.822000000     1.979000000
O     0.205000000    -3.238000000     2.653000000
H     1.095000000    -2.915000000     2.512000000
H     0.061000000    -3.139000000     3.594000000
O    -1.633000000    -4.421000000     0.915000000
H    -1.112000000    -4.000000000     1.598000000
H    -2.297000000    -3.771000000     0.685000000
O     1.106000000     5.664000000    -2.425000000
H     0.509000000     6.045000000    -1.780000000
H     0.692000000     5.845000000    -3.269000000
O    -7.678000000    -0.305000000    -0.590000000
H    -6.869000000    -0.149000000    -0.103000000
H    -8.376000000    -0.103000000     0.034000000
O    -3.266000000     2.337000000     2.335000000
H    -3.454000000     1.824000000     1.549000000
H    -3.039000000     1.686000000     2.998000000
O     3.003000000     3.102000000    -2.002000000
H     2.610000000     3.714000000    -1.380000000
H     2.437000000     3.147000000    -2.772000000
O     4.688000000    -1.562000000    -0.071000000
H     4.581000000    -2.321000000    -0.645000000
H     3.914000000    -1.577000000     0.492000000
O     2.341000000    -1.518000000     1.100000000
H     1.684000000    -0.852000000     0.899000000
H     2.220000000    -2.185000000     0.424000000
O     2.601000000     4.817000000     0.310000000
H     2.677000000     5.768000000     0.224000000
H     1.684000000     4.669000000     0.538000000
O    -2.754000000     0.781000000     4.371000000
H    -3.037000000     0.541000000     5.253000000
H    -3.033000000     0.048000000     3.822000000
O     0.839000000     4.956000000     4.640000000
H     1.475000000     4.462000000     4.124000000
H     0.825000000     4.515000000     5.489000000
O     0.249000000    -5.292000000    -1.996000000
H     0.324000000    -5.786000000    -1.179000000
H    -0.540000000    -4.763000000    -1.884000000
O    -3.089000000     5.039000000     2.901000000
H    -3.430000000     4.178000000     2.659000000
H    -2.281000000     5.128000000     2.394000000
O     3.048000000    -0.345000000     5.317000000
H     3.399000000     0.061000000     4.524000000
H     2.695000000     0.386000000     5.825000000
O     0.069000000     4.185000000     0.180000000
H    -0.699000000     4.686000000     0.454000000
H    -0.292000000     3.406000000    -0.244000000
O     6.776000000    -0.134000000    -1.156000000
H     6.466000000     0.252000000    -1.976000000
H     5.985000000    -0.473000000    -0.737000000
O    -6.484000000    -6.396000000     0.554000000
H    -5.964000000    -5.605000000     0.410000000
H    -7.384000000    -6.079000000     0.633000000
O    -2.997000000    -2.419000000     4.395000000
H    -2.163000000    -2.884000000     4.328000000
H    -3.043000000    -1.894000000     3.596000000
O    -0.502000000     2.283000000     4.946000000
H    -1.430000000     2.106000000     5.099000000
H    -0.445000000     2.469000000     4.009000000
O     3.670000000    -0.301000000    -5.024000000
H     4.320000000    -0.313000000    -5.726000000
H     3.246000000    -1.158000000    -5.075000000
O     0.258000000    -2.345000000     5.309000000
H     0.497000000    -1.446000000     5.081000000
H     0.825000000    -2.562000000     6.049000000
O    -3.881000000    -5.282000000    -0.828000000
H    -4.194000000    -4.475000000    -0.419000000
H    -3.074000000    -5.026000000    -1.275000000
O     2.472000000    -3.887000000    -0.876000000
H     1.704000000    -3.787000000    -1.438000000
H     2.738000000    -4.799000000    -0.994000000
O     5.469000000     0.934000000    -3.346000000
H     4.915000000     0.361000000    -3.875000000
H     4.913000000     1.688000000    -3.148000000
O    -3.172000000     0.473000000    -3.483000000
H    -2.912000000     0.772000000    -2.612000000
H    -3.662000000     1.208000000    -3.852000000
O     3.639000000     4.361000000    -5.535000000
H     4.093000000     4.539000000    -4.712000000
H     3.205000000     3.520000000    -5.392000000
O    -1.730000000     2.799000000    -1.460000000
H    -2.401000000     3.231000000    -1.988000000
H    -2.183000000     2.058000000    -1.057000000
O    -7.704000000    -2.079000000     3.842000000
H    -6.817000000    -2.437000000     3.876000000
H    -7.578000000    -1.133000000     3.759000000
O     3.523000000     2.826000000     5.368000000
H     3.920000000     3.565000000     5.829000000
H     3.210000000     3.198000000     4.544000000
O    -1.596000000    -2.067000000    -4.572000000
H    -1.049000000    -1.611000000    -5.212000000
H    -2.346000000    -1.487000000    -4.441000000
O    -4.893000000    -4.263000000    -4.313000000
H    -5.367000000    -4.726000000    -3.622000000
H    -4.388000000    -3.594000000    -3.850000000
O     2.473000000     2.143000000    -4.590000000
H     1.591000000     2.006000000    -4.936000000
H     2.909000000     1.299000000    -4.705000000
O     2.875000000     4.050000000     2.906000000
H     2.705000000     4.435000000     2.046000000
H     3.827000000     4.087000000     3.000000000
O     6.400000000     1.068000000     1.760000000
H     7.072000000     1.267000000     1.108000000
H     5.583000000     1.366000000     1.360000000
O    -1.782000000    -6.936000000     1.868000000
H    -0.984000000    -7.187000000     2.332000000
H    -1.610000000    -6.047000000     1.558000000
O     5.309000000     5.019000000    -3.357000000
H     5.113000000     5.955000000    -3.298000000
H     5.322000000     4.719000000    -2.449000000
O     4.476000000     2.325000000     0.370000000
H     3.714000000     2.820000000     0.671000000
H     4.393000000     2.313000000    -0.583000000
O     5.685000000     4.149000000     3.073000000
H     6.230000000     3.877000000     3.812000000
H     5.938000000     3.562000000     2.361000000
O    -4.032000000    -2.086000000    -2.278000000
H    -4.138000000    -2.205000000    -1.334000000
H    -3.797000000    -1.164000000    -2.378000000
O    -2.057000000    -4.210000000    -2.785000000
H    -2.789000000    -3.646000000    -2.534000000
H    -1.634000000    -3.745000000    -3.507000000
O    -4.079000000     0.961000000    -0.858000000
H    -4.619000000     1.751000000    -0.886000000
H    -4.463000000     0.432000000    -0.159000000
O    -5.385000000    -3.710000000     3.751000000
H    -4.644000000    -3.259000000     4.157000000
H    -5.206000000    -4.639000000     3.893000000
O    -0.442000000     3.089000000    -3.858000000
H    -0.088000000     3.976000000    -3.907000000
H    -0.831000000     3.034000000    -2.985000000
O     5.529000000    -1.723000000     2.833000000
H     6.399000000    -1.956000000     2.509000000
H     5.114000000    -1.270000000     2.099000000
O    -3.478000000    -0.916000000     6.518000000
H    -3.468000000    -1.670000000     5.928000000
H    -3.393000000    -1.295000000     7.393000000
O    -5.322000000    -0.391000000     1.091000000
H    -4.559000000    -0.853000000     1.438000000
H    -5.875000000    -0.233000000     1.856000000
