158
-3059.42893
C     0.337000000    -1.405000000    -0.396000000
H     0.646000000    -2.434000000    -0.556000000
C     1.250000000    -0.384000000    -0.291000000
H     2.332000000    -0.486000000    -0.315000000
C     0.824000000     0.886000000     0.093000000
H     1.521000000     1.652000000     0.182000000
C    -0.470000000     1.055000000     0.551000000
H    -0.846000000     1.970000000     1.001000000
C    -1.449000000     0.087000000     0.306000000
H    -2.515000000     0.279000000     0.396000000
C    -1.037000000    -1.115000000    -0.199000000
C    -2.100000000    -2.116000000    -0.562000000
O    -1.734000000    -3.221000000    -1.004000000
O    -3.249000000    -1.917000000    -0.408000000
O    -1.394000000    -0.161000000    -5.058000000
H    -2.343000000    -0.233000000    -4.959000000
H    -1.116000000     0.376000000    -4.316000000
O    -3.559000000    -6.217000000    -1.111000000
H    -3.600000000    -5.328000000    -1.464000000
H    -4.296000000    -6.267000000    -0.502000000
O    -0.892000000    -3.289000000     3.643000000
H    -0.857000000    -3.781000000     2.823000000
H     0.016000000    -3.262000000     3.945000000
O    -2.126000000    -0.943000000     4.649000000
H    -1.729000000    -0.468000000     3.919000000
H    -2.093000000    -1.862000000     4.384000000
O    -2.616000000    -3.173000000    -3.956000000
H    -1.700000000    -2.897000000    -3.983000000
H    -2.733000000    -3.526000000    -3.074000000
O     1.167000000    -5.686000000     1.097000000
H     1.133000000    -5.847000000     2.040000000
H     0.362000000    -5.205000000     0.907000000
O    -4.135000000    -0.815000000    -4.141000000
H    -4.990000000    -0.866000000    -4.569000000
H    -3.885000000    -1.727000000    -3.997000000
O     6.315000000     0.460000000    -2.261000000
H     6.503000000     0.699000000    -3.168000000
H     5.536000000    -0.092000000    -2.316000000
O     3.865000000    -2.340000000     2.375000000
H     4.244000000    -3.143000000     2.733000000
H     3.916000000    -2.454000000     1.426000000
O     1.655000000    -3.152000000     4.209000000
H     2.251000000    -2.969000000     3.484000000
H     2.094000000    -3.837000000     4.714000000
O     4.435000000     2.548000000     0.201000000
H     5.145000000     2.526000000    -0.441000000
H     4.791000000     2.099000000     0.968000000
O    -3.618000000    -3.479000000     3.605000000
H    -3.911000000    -3.916000000     2.805000000
H    -2.665000000    -3.564000000     3.589000000
O     3.456000000    -5.668000000    -0.200000000
H     2.510000000    -5.525000000    -0.184000000
H     3.556000000    -6.619000000    -0.186000000
O    -1.118000000     5.245000000     0.314000000
H    -1.879000000     4.664000000     0.344000000
H    -0.989000000     5.518000000     1.222000000
O    -5.269000000    -0.279000000     0.259000000
H    -4.662000000    -0.877000000    -0.176000000
H    -4.981000000    -0.269000000     1.172000000
O     1.303000000     4.801000000     4.942000000
H     2.010000000     4.206000000     4.693000000
H     0.781000000     4.302000000     5.570000000
O    -3.257000000     3.907000000    -0.006000000
H    -3.986000000     3.357000000     0.281000000
H    -3.106000000     3.649000000    -0.915000000
O     1.749000000    -2.190000000    -3.277000000
H     1.359000000    -1.927000000    -4.110000000
H     1.225000000    -2.940000000    -2.994000000
O     3.921000000     0.765000000    -5.182000000
H     4.836000000     0.968000000    -4.988000000
H     3.509000000     0.674000000    -4.322000000
O    -2.584000000     2.724000000     4.279000000
H    -2.613000000     3.681000000     4.307000000
H    -1.870000000     2.489000000     4.871000000
O    -7.825000000     0.692000000    -0.345000000
H    -8.316000000     0.178000000     0.296000000
H    -6.934000000     0.345000000    -0.298000000
O     0.218000000     5.353000000     2.648000000
H     0.779000000     4.721000000     2.198000000
H     0.272000000     5.106000000     3.571000000
O     6.013000000     1.455000000     2.737000000
H     6.754000000     1.857000000     3.190000000
H     6.408000000     0.986000000     2.001000000
O     2.635000000     3.523000000    -2.845000000
H     2.854000000     2.596000000    -2.748000000
H     1.747000000     3.596000000    -2.496000000
O    -2.153000000    -8.661000000    -0.516000000
H    -2.084000000    -7.760000000    -0.832000000
H    -1.627000000    -9.172000000    -1.131000000
O     1.941000000     4.100000000     1.056000000
H     2.780000000     3.695000000     0.838000000
H     1.911000000     4.893000000     0.520000000
O    -4.424000000     1.259000000     2.980000000
H    -3.716000000     1.623000000     3.512000000
H    -4.429000000     1.797000000     2.188000000
O     4.516000000    -1.349000000    -3.011000000
H     5.176000000    -1.923000000    -3.400000000
H     3.697000000    -1.605000000    -3.434000000
O     6.418000000    -0.225000000     0.443000000
H     5.770000000    -0.929000000     0.418000000
H     6.366000000     0.180000000    -0.423000000
O    -1.300000000    -4.750000000     1.032000000
H    -1.364000000    -4.291000000     0.195000000
H    -2.102000000    -5.269000000     1.082000000
O    -0.493000000     1.322000000    -2.679000000
H    -0.617000000     0.838000000    -1.863000000
H    -0.595000000     2.241000000    -2.431000000
O     4.709000000    -2.636000000    -0.229000000
H     5.530000000    -3.086000000    -0.426000000
H     4.213000000    -2.672000000    -1.047000000
O     4.275000000    -0.265000000     3.854000000
H     4.198000000    -0.939000000     3.178000000
H     4.781000000     0.433000000     3.439000000
O    -5.266000000     0.781000000    -2.270000000
H    -5.379000000     0.277000000    -1.465000000
H    -4.939000000     0.145000000    -2.907000000
O     0.270000000    -4.277000000    -2.817000000
H    -0.389000000    -4.044000000    -2.163000000
H     0.204000000    -5.228000000    -2.896000000
O    -5.541000000     2.606000000     0.700000000
H    -6.189000000     2.824000000     1.370000000
H    -6.055000000     2.471000000    -0.096000000
O    -5.655000000    -1.099000000     3.162000000
H    -5.181000000    -0.283000000     3.324000000
H    -5.042000000    -1.787000000     3.420000000
O    -0.124000000     3.914000000    -1.964000000
H    -0.006000000     4.391000000    -1.142000000
H    -0.563000000     4.538000000    -2.542000000
O     4.257000000     6.695000000    -1.608000000
H     4.277000000     6.323000000    -0.727000000
H     5.095000000     6.439000000    -1.995000000
O    -4.791000000    -3.643000000    -1.933000000
H    -4.122000000    -3.113000000    -1.500000000
H    -5.621000000    -3.288000000    -1.615000000
O     3.159000000     3.250000000     3.637000000
H     4.091000000     3.339000000     3.434000000
H     2.853000000     2.555000000     3.054000000
O     3.433000000     5.060000000    -4.986000000
H     3.086000000     4.489000000    -4.300000000
H     3.263000000     5.947000000    -4.668000000
O    -7.409000000    -3.057000000    -0.614000000
H    -8.080000000    -2.487000000    -0.238000000
H    -7.872000000    -3.871000000    -0.816000000
O    -5.718000000    -4.086000000    -4.641000000
H    -5.113000000    -4.071000000    -3.900000000
H    -5.961000000    -3.169000000    -4.770000000
O    -4.965000000    -3.636000000     0.955000000
H    -4.528000000    -2.934000000     0.474000000
H    -5.889000000    -3.546000000     0.724000000
O    -3.718000000     2.919000000    -2.775000000
H    -3.837000000     1.970000000    -2.732000000
H    -3.357000000     3.076000000    -3.647000000
O     1.936000000     0.584000000    -3.320000000
H     1.768000000    -0.288000000    -2.961000000
H     1.119000000     1.062000000    -3.179000000
O     3.411000000    -5.620000000    -2.956000000
H     3.629000000    -5.596000000    -2.024000000
H     3.047000000    -4.754000000    -3.140000000
