158
-3049.41167
C    -1.171000000    -0.267000000    -0.874000000
H    -2.000000000    -0.575000000    -1.507000000
C     0.110000000    -0.787000000    -1.073000000
H     0.354000000    -1.416000000    -1.926000000
C     1.078000000    -0.424000000    -0.215000000
H     2.099000000    -0.747000000    -0.259000000
C     0.816000000     0.356000000     0.921000000
H     1.641000000     0.680000000     1.550000000
C    -0.478000000     0.815000000     1.153000000
H    -0.625000000     1.452000000     2.022000000
C    -1.482000000     0.412000000     0.317000000
C    -2.903000000     0.936000000     0.587000000
O    -3.652000000     1.025000000    -0.398000000
O    -3.175000000     1.365000000     1.720000000
O     4.387000000    -3.007000000     0.883000000
H     4.543000000    -2.282000000     0.277000000
H     4.916000000    -2.793000000     1.652000000
O    -4.094000000     0.151000000    -2.731000000
H    -3.946000000     0.666000000    -1.938000000
H    -4.948000000     0.443000000    -3.050000000
O    -6.053000000     0.014000000     0.974000000
H    -5.618000000     0.854000000     0.826000000
H    -6.685000000    -0.057000000     0.258000000
O    -2.091000000    -2.370000000     4.601000000
H    -2.611000000    -1.581000000     4.448000000
H    -1.449000000    -2.375000000     3.891000000
O    -1.492000000    -4.680000000    -0.908000000
H    -1.986000000    -3.889000000    -1.124000000
H    -1.051000000    -4.917000000    -1.724000000
O     1.405000000    -6.228000000    -1.628000000
H     1.885000000    -5.814000000    -0.911000000
H     1.088000000    -7.052000000    -1.259000000
O    -2.179000000     2.211000000    -3.668000000
H    -1.638000000     2.222000000    -2.878000000
H    -2.824000000     1.523000000    -3.506000000
O     0.289000000     3.076000000    -1.496000000
H    -0.501000000     3.477000000    -1.133000000
H     0.594000000     2.484000000    -0.809000000
O    -3.997000000     5.449000000    -1.320000000
H    -4.705000000     4.996000000    -1.776000000
H    -3.915000000     6.287000000    -1.776000000
O     1.455000000     1.166000000    -5.350000000
H     0.957000000     0.390000000    -5.605000000
H     1.006000000     1.494000000    -4.571000000
O     2.272000000    -3.518000000     2.890000000
H     1.678000000    -4.226000000     2.639000000
H     2.796000000    -3.356000000     2.106000000
O     4.442000000     0.582000000    -6.126000000
H     3.526000000     0.440000000    -6.364000000
H     4.410000000     0.878000000    -5.216000000
O     4.115000000     1.205000000     0.664000000
H     3.530000000     1.771000000     1.167000000
H     4.337000000     1.721000000    -0.112000000
O     3.011000000     3.095000000     2.431000000
H     2.114000000     3.410000000     2.320000000
H     3.179000000     3.176000000     3.370000000
O    -2.785000000     4.245000000     2.350000000
H    -3.015000000     3.393000000     1.979000000
H    -2.520000000     4.051000000     3.249000000
O     4.267000000    -5.555000000    -0.252000000
H     4.234000000    -4.599000000    -0.285000000
H     4.794000000    -5.749000000     0.524000000
O     6.749000000    -2.572000000     2.390000000
H     6.223000000    -1.781000000     2.505000000
H     7.189000000    -2.447000000     1.549000000
O    -4.375000000    -3.929000000    -2.960000000
H    -4.407000000    -3.455000000    -2.130000000
H    -5.257000000    -4.288000000    -3.065000000
O     0.722000000     4.182000000     1.746000000
H    -0.012000000     4.409000000     2.316000000
H     0.610000000     4.742000000     0.977000000
O    -4.179000000    -2.654000000    -0.517000000
H    -4.221000000    -2.991000000     0.378000000
H    -4.257000000    -1.705000000    -0.419000000
O    -7.532000000    -0.856000000    -1.829000000
H    -7.216000000    -1.746000000    -1.671000000
H    -7.371000000    -0.707000000    -2.761000000
O     4.331000000    -0.171000000    -3.196000000
H     5.187000000    -0.144000000    -3.625000000
H     3.768000000    -0.635000000    -3.815000000
O     2.056000000     1.025000000     6.072000000
H     2.437000000     1.072000000     6.949000000
H     2.707000000     0.552000000     5.554000000
O    -4.765000000     6.016000000     1.560000000
H    -4.012000000     5.449000000     1.730000000
H    -5.307000000     5.517000000     0.949000000
O     7.836000000    -2.092000000    -0.233000000
H     7.027000000    -1.725000000    -0.589000000
H     8.466000000    -1.372000000    -0.278000000
O    -0.232000000    -0.928000000    -5.369000000
H    -0.038000000    -1.700000000    -5.900000000
H    -0.899000000    -1.225000000    -4.750000000
O    -0.126000000     1.885000000     4.679000000
H     0.669000000     1.556000000     5.098000000
H     0.191000000     2.484000000     4.002000000
O    -5.718000000     2.641000000     2.852000000
H    -5.467000000     2.886000000     1.962000000
H    -5.321000000     1.781000000     2.985000000
O     4.628000000    -0.651000000     2.828000000
H     4.580000000     0.159000000     2.320000000
H     3.720000000    -0.840000000     3.063000000
O     2.568000000     3.978000000    -2.517000000
H     1.702000000     3.826000000    -2.139000000
H     3.169000000     3.516000000    -1.932000000
O     5.194000000    -0.925000000    -0.792000000
H     5.091000000    -0.800000000    -1.735000000
H     4.740000000    -0.178000000    -0.401000000
O    -8.535000000     1.985000000     3.028000000
H    -8.262000000     1.910000000     3.943000000
H    -7.728000000     2.184000000     2.553000000
O    -6.559000000    -2.354000000     2.044000000
H    -6.367000000    -1.498000000     1.660000000
H    -6.576000000    -2.194000000     2.988000000
O    -0.652000000    -5.966000000    -3.889000000
H     0.080000000    -5.355000000    -3.970000000
H    -0.416000000    -6.700000000    -4.455000000
O    -1.675000000     2.012000000     7.172000000
H    -1.004000000     1.754000000     6.540000000
H    -1.520000000     1.447000000     7.929000000
O     2.804000000    -1.789000000    -4.773000000
H     1.976000000    -1.646000000    -5.232000000
H     2.566000000    -2.310000000    -4.006000000
O     4.987000000     3.188000000    -1.375000000
H     5.593000000     2.803000000    -2.008000000
H     5.466000000     3.929000000    -1.004000000
O    -2.415000000     4.037000000     4.961000000
H    -2.041000000     3.398000000     5.569000000
H    -3.353000000     3.849000000     4.964000000
O    -6.107000000     1.669000000    -3.474000000
H    -6.238000000     2.570000000    -3.179000000
H    -6.955000000     1.410000000    -3.837000000
O     2.008000000    -4.097000000    -3.114000000
H     1.866000000    -4.937000000    -2.677000000
H     2.947000000    -3.934000000    -3.020000000
O     2.100000000    -1.089000000     3.842000000
H     1.539000000    -1.128000000     4.616000000
H     1.935000000    -1.913000000     3.385000000
O     4.670000000    -4.168000000    -2.763000000
H     5.583000000    -4.064000000    -2.496000000
H     4.595000000    -5.090000000    -3.007000000
O    -0.446000000    -2.062000000     2.233000000
H    -0.353000000    -1.147000000     1.966000000
H     0.123000000    -2.545000000     1.634000000
O    -4.611000000    -0.250000000     6.244000000
H    -4.005000000     0.028000000     5.557000000
H    -4.048000000    -0.463000000     6.988000000
O    -2.383000000    -1.832000000    -4.040000000
H    -2.788000000    -0.965000000    -4.041000000
H    -2.947000000    -2.359000000    -3.475000000
O    -1.712000000     4.662000000    -0.139000000
H    -2.503000000     4.746000000    -0.672000000
H    -2.034000000     4.603000000     0.760000000
O    -2.714000000     0.476000000     4.239000000
H    -2.824000000     0.572000000     3.293000000
H    -2.164000000     1.218000000     4.492000000
O    -5.747000000     2.823000000    -0.040000000
H    -4.937000000     2.329000000    -0.163000000
H    -5.921000000     3.215000000    -0.896000000
