158
-3052.43180
C    -0.887000000    -0.861000000    -0.718000000
H    -1.480000000    -1.377000000    -1.469000000
C     0.443000000    -0.764000000    -0.945000000
H     0.922000000    -1.383000000    -1.699000000
C     1.236000000     0.073000000    -0.207000000
H     2.296000000     0.069000000    -0.229000000
C     0.591000000     0.763000000     0.816000000
H     1.160000000     1.342000000     1.538000000
C    -0.712000000     0.701000000     1.072000000
H    -1.109000000     1.239000000     1.929000000
C    -1.551000000    -0.076000000     0.226000000
C    -3.067000000    -0.205000000     0.407000000
O    -3.682000000    -1.216000000     0.054000000
O    -3.487000000     0.606000000     1.217000000
O     5.013000000     0.728000000    -0.490000000
H     4.812000000    -0.206000000    -0.543000000
H     4.479000000     1.047000000     0.237000000
O    -6.060000000     0.204000000    -1.567000000
H    -5.961000000     0.472000000    -0.653000000
H    -6.182000000    -0.745000000    -1.526000000
O    -5.945000000    -2.862000000     0.772000000
H    -5.385000000    -2.140000000     0.484000000
H    -6.715000000    -2.433000000     1.146000000
O    -0.446000000    -2.345000000     5.405000000
H    -0.244000000    -1.609000000     5.984000000
H    -0.127000000    -2.069000000     4.546000000
O    -2.277000000    -2.951000000     1.543000000
H    -2.104000000    -3.632000000     0.893000000
H    -2.806000000    -2.304000000     1.077000000
O    -3.339000000     1.234000000    -2.534000000
H    -3.566000000     0.320000000    -2.706000000
H    -4.154000000     1.715000000    -2.682000000
O    -6.015000000     3.651000000     1.624000000
H    -5.216000000     3.316000000     1.216000000
H    -6.709000000     3.078000000     1.297000000
O    -0.906000000     0.386000000    -3.864000000
H    -0.483000000     0.031000000    -3.082000000
H    -1.563000000     0.995000000    -3.526000000
O     4.683000000    -1.026000000    -4.514000000
H     5.606000000    -0.818000000    -4.365000000
H     4.205000000    -0.358000000    -4.022000000
O     3.609000000     5.755000000     1.202000000
H     4.353000000     5.209000000     0.950000000
H     3.674000000     5.824000000     2.155000000
O     7.620000000     1.965000000    -1.151000000
H     6.818000000     1.444000000    -1.145000000
H     7.715000000     2.249000000    -2.060000000
O     3.343000000     0.202000000     3.097000000
H     2.593000000     0.458000000     3.634000000
H     3.295000000     0.775000000     2.332000000
O     1.240000000     0.938000000     4.858000000
H     0.528000000     1.564000000     4.726000000
H     0.939000000     0.380000000     5.575000000
O    -2.872000000     2.752000000     4.217000000
H    -2.960000000     1.893000000     3.804000000
H    -3.750000000     2.952000000     4.542000000
O     4.015000000     3.678000000     3.533000000
H     4.669000000     4.356000000     3.703000000
H     3.335000000     3.832000000     4.189000000
O    -1.328000000     4.126000000     1.427000000
H    -0.449000000     4.233000000     1.062000000
H    -1.220000000     4.293000000     2.363000000
O    -0.579000000     3.518000000     5.099000000
H    -1.389000000     3.186000000     4.712000000
H    -0.675000000     4.470000000     5.075000000
O    -4.329000000    -3.096000000     3.335000000
H    -3.388000000    -3.201000000     3.195000000
H    -4.715000000    -3.212000000     2.467000000
O     4.806000000    -1.962000000     0.816000000
H     3.856000000    -1.866000000     0.756000000
H     4.939000000    -2.876000000     1.070000000
O     1.519000000     0.502000000    -5.209000000
H     1.998000000     0.984000000    -4.535000000
H     0.618000000     0.469000000    -4.886000000
O     0.998000000     4.338000000    -2.194000000
H     1.091000000     4.468000000    -3.137000000
H     0.544000000     3.499000000    -2.112000000
O     3.485000000    -2.716000000    -2.533000000
H     4.208000000    -2.750000000    -3.160000000
H     2.724000000    -2.470000000    -3.059000000
O    -7.331000000     0.942000000     3.345000000
H    -7.733000000     1.406000000     4.080000000
H    -6.947000000     0.158000000     3.738000000
O     3.454000000     1.590000000    -3.672000000
H     4.052000000     1.892000000    -4.356000000
H     3.398000000     2.326000000    -3.062000000
O    -1.076000000    -3.339000000    -4.359000000
H    -1.212000000    -3.565000000    -3.439000000
H    -0.220000000    -2.911000000    -4.377000000
O    -6.276000000    -1.379000000     3.975000000
H    -5.444000000    -1.715000000     3.642000000
H    -6.265000000    -1.595000000     4.908000000
O     2.843000000    -1.813000000     4.961000000
H     3.022000000    -1.041000000     4.425000000
H     3.302000000    -2.526000000     4.516000000
O    -0.998000000     2.579000000    -1.416000000
H    -1.870000000     2.254000000    -1.639000000
H    -0.934000000     2.463000000    -0.468000000
O     6.837000000    -0.694000000     1.886000000
H     6.038000000    -0.861000000     1.386000000
H     7.356000000    -0.120000000     1.322000000
O     0.672000000    -5.597000000     1.055000000
H     1.036000000    -4.813000000     0.644000000
H     1.356000000    -6.259000000     0.958000000
O     1.517000000    -2.216000000    -4.795000000
H     2.304000000    -2.552000000    -5.224000000
H     1.537000000    -1.274000000    -4.962000000
O     2.285000000    -4.025000000    -0.680000000
H     2.908000000    -4.622000000    -0.266000000
H     2.815000000    -3.505000000    -1.284000000
O    -5.565000000    -5.356000000    -0.751000000
H    -5.725000000    -4.597000000    -0.189000000
H    -6.352000000    -5.892000000    -0.658000000
O     3.556000000     2.326000000     1.203000000
H     2.876000000     2.964000000     0.982000000
H     3.990000000     2.695000000     1.972000000
O    -7.079000000    -2.395000000    -1.830000000
H    -7.603000000    -2.947000000    -1.249000000
H    -6.430000000    -2.989000000    -2.205000000
O     3.974000000    -4.454000000     1.425000000
H     4.146000000    -4.527000000     2.363000000
H     4.308000000    -5.272000000     1.056000000
O     0.128000000    -2.312000000     2.418000000
H     0.534000000    -1.898000000     1.656000000
H    -0.777000000    -2.472000000     2.150000000
O    -3.684000000    -1.655000000    -2.733000000
H    -3.592000000    -1.509000000    -1.792000000
H    -3.597000000    -2.603000000    -2.838000000
O    -2.527000000    -5.015000000    -0.426000000
H    -2.227000000    -5.885000000    -0.688000000
H    -3.453000000    -5.134000000    -0.216000000
O    -3.591000000     3.108000000     0.247000000
H    -3.563000000     2.256000000     0.682000000
H    -2.773000000     3.534000000     0.501000000
O     4.598000000     4.085000000    -2.203000000
H     4.345000000     4.984000000    -2.414000000
H     4.795000000     4.106000000    -1.266000000
O     1.362000000     4.170000000     0.624000000
H     1.847000000     4.949000000     0.894000000
H     1.486000000     4.127000000    -0.324000000
O     5.964000000     0.304000000     4.347000000
H     6.628000000    -0.268000000     3.963000000
H     5.162000000     0.098000000     3.866000000
O    -3.453000000     0.182000000     3.734000000
H    -3.393000000     0.310000000     2.787000000
H    -3.620000000    -0.754000000     3.839000000
O     5.635000000     4.297000000     0.214000000
H     6.330000000     4.374000000     0.868000000
H     5.695000000     3.392000000    -0.093000000
O    -6.093000000     0.092000000     1.152000000
H    -5.144000000     0.198000000     1.212000000
H    -6.437000000     0.594000000     1.891000000
O    -5.897000000     0.351000000    -4.171000000
H    -6.664000000     0.920000000    -4.236000000
H    -5.685000000     0.341000000    -3.238000000
O    -0.388000000    -4.229000000    -1.779000000
H     0.374000000    -4.312000000    -1.205000000
H    -1.101000000    -4.641000000    -1.291000000
