158
-3027.05630
C    -1.081000000     0.438000000    -0.895000000
H    -1.646000000     1.045000000    -1.597000000
C     0.252000000     0.143000000    -1.259000000
H     0.651000000     0.290000000    -2.260000000
C     1.129000000    -0.397000000    -0.342000000
H     2.078000000    -0.682000000    -0.875000000
C     0.749000000    -0.531000000     0.976000000
H     1.379000000    -0.901000000     1.781000000
C    -0.549000000    -0.260000000     1.332000000
H    -0.773000000    -0.317000000     2.395000000
C    -1.521000000     0.257000000     0.411000000
C    -2.925000000     0.689000000     0.868000000
O    -3.736000000     1.310000000     0.144000000
O    -3.287000000     0.248000000     1.924000000
O     3.414000000    -3.767000000    -0.599000000
H     2.729000000    -3.624000000    -1.251000000
H     4.157000000    -3.253000000    -0.914000000
O    -3.922000000     2.280000000    -3.488000000
H    -3.367000000     2.782000000    -4.084000000
H    -4.454000000     1.729000000    -4.063000000
O    -4.801000000    -1.516000000     0.877000000
H    -4.143000000    -0.917000000     1.230000000
H    -5.504000000    -1.511000000     1.526000000
O     0.485000000    -0.796000000     4.798000000
H     0.612000000    -1.583000000     4.269000000
H     0.891000000    -0.096000000     4.287000000
O     1.257000000    -4.305000000     1.073000000
H     0.640000000    -3.760000000     0.586000000
H     2.118000000    -4.041000000     0.750000000
O    -2.054000000     3.858000000    -5.151000000
H    -2.349000000     4.026000000    -6.046000000
H    -1.520000000     4.621000000    -4.928000000
O     0.309000000     2.335000000    -4.449000000
H    -0.464000000     2.661000000    -4.910000000
H     0.528000000     3.029000000    -3.828000000
O    -6.817000000     4.543000000    -2.792000000
H    -6.166000000     5.193000000    -3.055000000
H    -6.360000000     3.989000000    -2.159000000
O     4.289000000    -0.956000000     3.873000000
H     4.670000000    -0.303000000     3.287000000
H     4.053000000    -1.685000000     3.299000000
O    -1.829000000    -0.317000000     6.056000000
H    -1.683000000    -0.516000000     6.981000000
H    -1.038000000    -0.628000000     5.616000000
O     0.421000000    -3.040000000     3.666000000
H    -0.534000000    -3.096000000     3.649000000
H     0.688000000    -3.237000000     2.768000000
O     4.639000000     3.725000000     2.147000000
H     5.291000000     3.605000000     1.457000000
H     4.047000000     4.394000000     1.803000000
O     7.251000000     0.680000000    -2.442000000
H     7.417000000     0.508000000    -3.369000000
H     6.303000000     0.583000000    -2.348000000
O    -0.150000000     4.028000000    -0.037000000
H    -0.830000000     3.540000000    -0.501000000
H    -0.349000000     4.947000000    -0.219000000
O     2.178000000    -1.675000000     7.032000000
H     1.894000000    -1.088000000     6.332000000
H     1.469000000    -1.642000000     7.675000000
O     6.830000000     3.390000000    -1.617000000
H     7.065000000     3.739000000    -0.757000000
H     6.999000000     2.450000000    -1.548000000
O    -4.604000000     1.195000000     5.394000000
H    -5.011000000     1.672000000     4.671000000
H    -4.102000000     1.860000000     5.866000000
O     3.352000000    -0.949000000    -4.625000000
H     2.545000000    -1.311000000    -4.259000000
H     3.064000000    -0.193000000    -5.137000000
O     2.480000000     2.297000000    -1.550000000
H     1.565000000     2.198000000    -1.815000000
H     2.783000000     3.072000000    -2.022000000
O     4.053000000    -3.678000000     2.924000000
H     4.637000000    -4.371000000     2.617000000
H     3.735000000    -3.990000000     3.770000000
O     1.033000000     4.285000000    -2.866000000
H     0.149000000     4.583000000    -2.651000000
H     1.604000000     4.993000000    -2.568000000
O    -5.818000000    -2.611000000    -1.223000000
H    -4.957000000    -3.003000000    -1.372000000
H    -5.654000000    -1.906000000    -0.597000000
O     1.724000000     2.366000000     1.009000000
H     1.112000000     3.088000000     0.870000000
H     1.849000000     1.986000000     0.140000000
O     7.173000000    -3.256000000    -0.734000000
H     6.865000000    -2.544000000    -0.174000000
H     7.261000000    -2.859000000    -1.601000000
O    -2.250000000     2.620000000     6.638000000
H    -2.029000000     1.856000000     6.106000000
H    -2.328000000     2.278000000     7.528000000
O    -8.096000000     3.410000000     0.461000000
H    -7.710000000     2.997000000    -0.311000000
H    -7.376000000     3.901000000     0.855000000
O    -4.606000000     2.292000000     3.008000000
H    -3.918000000     1.722000000     2.667000000
H    -4.823000000     2.870000000     2.276000000
O     5.403000000     0.816000000     1.820000000
H     5.021000000     1.689000000     1.917000000
H     6.088000000     0.779000000     2.487000000
O     2.619000000     1.823000000    -5.712000000
H     1.751000000     1.961000000    -5.333000000
H     3.136000000     2.569000000    -5.407000000
O     4.680000000     0.798000000    -1.361000000
H     3.837000000     1.221000000    -1.526000000
H     4.771000000     0.809000000    -0.408000000
O    -6.437000000    -0.191000000     2.998000000
H    -5.819000000     0.478000000     2.703000000
H    -6.703000000     0.097000000     3.871000000
O    -0.145000000    -3.009000000    -0.893000000
H    -0.943000000    -3.466000000    -0.626000000
H    -0.272000000    -2.109000000    -0.592000000
O     1.807000000     1.096000000     3.678000000
H     2.310000000     1.652000000     4.272000000
H     1.735000000     1.610000000     2.873000000
O     4.606000000    -2.006000000    -2.211000000
H     4.336000000    -1.502000000    -2.979000000
H     4.858000000    -1.345000000    -1.566000000
O    -2.701000000    -3.675000000     0.050000000
H    -2.552000000    -4.279000000     0.778000000
H    -3.081000000    -2.897000000     0.458000000
O    -2.861000000     5.992000000     0.825000000
H    -3.787000000     5.900000000     0.601000000
H    -2.405000000     5.436000000     0.193000000
O     1.807000000    -3.277000000    -2.774000000
H     0.923000000    -3.105000000    -2.448000000
H     1.709000000    -4.045000000    -3.337000000
O     3.939000000    -6.519000000    -0.008000000
H     3.766000000    -5.650000000    -0.371000000
H     3.654000000    -6.459000000     0.904000000
O     2.581000000    -3.771000000     5.305000000
H     2.302000000    -3.432000000     4.454000000
H     2.465000000    -3.035000000     5.905000000
O     5.840000000    -1.711000000     1.032000000
H     5.036000000    -2.185000000     1.242000000
H     5.654000000    -0.804000000     1.273000000
O     5.201000000    -2.840000000    -5.017000000
H     4.637000000    -2.082000000    -4.864000000
H     5.531000000    -3.073000000    -4.149000000
O    -4.419000000    -3.443000000     4.917000000
H    -3.716000000    -2.858000000     4.635000000
H    -5.022000000    -3.468000000     4.174000000
O    -2.282000000     3.721000000    -1.440000000
H    -2.824000000     3.808000000    -2.224000000
H    -2.819000000     3.213000000    -0.832000000
O    -2.830000000    -0.854000000    -3.491000000
H    -2.152000000    -0.204000000    -3.306000000
H    -3.645000000    -0.351000000    -3.510000000
O    -8.248000000    -0.497000000     0.785000000
H    -7.639000000    -0.216000000     1.468000000
H    -8.184000000    -1.452000000     0.786000000
O    -2.832000000    -1.631000000     3.691000000
H    -3.165000000    -1.115000000     2.957000000
H    -2.629000000    -0.984000000     4.367000000
O     4.404000000     4.311000000    -2.284000000
H     5.247000000     3.860000000    -2.243000000
H     4.540000000     5.118000000    -1.788000000
O    -5.528000000     2.560000000    -1.299000000
H    -4.965000000     2.030000000    -0.735000000
H    -5.179000000     2.426000000    -2.180000000
