158
-2999.21105
C    -0.628000000     1.263000000    -0.535000000
H    -1.172000000     2.030000000    -1.080000000
C    -0.055000000     0.237000000    -1.302000000
H    -0.175000000     0.207000000    -2.382000000
C     0.543000000    -0.885000000    -0.662000000
H     1.049000000    -1.672000000    -1.288000000
C     0.634000000    -0.927000000     0.706000000
H     1.124000000    -1.807000000     1.116000000
C     0.006000000     0.048000000     1.451000000
H     0.013000000     0.063000000     2.538000000
C    -0.551000000     1.178000000     0.876000000
C    -1.206000000     2.303000000     1.721000000
O    -1.615000000     3.309000000     1.224000000
O    -1.530000000     2.037000000     2.911000000
O    -2.644000000    -3.050000000    -4.973000000
H    -3.093000000    -2.802000000    -4.165000000
H    -1.797000000    -2.607000000    -4.923000000
O    -1.645000000     1.437000000    -4.308000000
H    -1.407000000     1.767000000    -5.174000000
H    -2.155000000     2.144000000    -3.913000000
O     0.405000000     6.179000000    -1.293000000
H     1.227000000     6.027000000    -1.760000000
H     0.298000000     7.130000000    -1.300000000
O    -0.795000000    -4.676000000    -6.907000000
H     0.138000000    -4.854000000    -7.024000000
H    -0.855000000    -4.272000000    -6.042000000
O    -4.004000000     1.389000000     3.486000000
H    -4.408000000     1.061000000     2.683000000
H    -3.119000000     1.643000000     3.223000000
O     1.223000000     2.260000000     6.612000000
H     1.382000000     2.663000000     5.758000000
H     1.693000000     1.427000000     6.575000000
O    -2.510000000    -3.986000000     0.367000000
H    -1.952000000    -4.691000000     0.695000000
H    -3.208000000    -4.435000000    -0.109000000
O     2.583000000    -5.526000000    -3.392000000
H     2.618000000    -5.139000000    -4.267000000
H     3.379000000    -5.216000000    -2.960000000
O    -0.166000000     2.718000000    -6.428000000
H     0.157000000     3.353000000    -7.067000000
H     0.215000000     2.999000000    -5.596000000
O     1.312000000     2.785000000     3.770000000
H     0.886000000     3.587000000     3.467000000
H     0.901000000     2.088000000     3.259000000
O     0.588000000     7.287000000     1.602000000
H     0.917000000     7.053000000     0.734000000
H     1.258000000     6.967000000     2.206000000
O     4.630000000    -4.121000000    -2.094000000
H     4.652000000    -3.570000000    -1.312000000
H     5.513000000    -4.485000000    -2.156000000
O     3.688000000    -2.557000000     4.295000000
H     4.124000000    -3.109000000     4.943000000
H     3.702000000    -3.075000000     3.490000000
O    -0.347000000     4.951000000     3.050000000
H    -0.978000000     4.346000000     2.660000000
H    -0.288000000     5.673000000     2.424000000
O     2.737000000    -1.923000000    -5.836000000
H     2.071000000    -2.170000000    -6.478000000
H     3.435000000    -1.526000000    -6.357000000
O    -5.214000000     6.001000000    -0.127000000
H    -4.259000000     5.990000000    -0.067000000
H    -5.442000000     5.138000000    -0.474000000
O    -2.970000000    -0.328000000     5.812000000
H    -2.257000000     0.269000000     6.040000000
H    -3.326000000     0.026000000     4.996000000
O     1.345000000    -4.696000000     2.124000000
H     2.236000000    -4.387000000     1.957000000
H     1.438000000    -5.312000000     2.851000000
O    -3.235000000     3.423000000     6.198000000
H    -2.530000000     2.868000000     5.865000000
H    -3.031000000     4.296000000     5.863000000
O     3.838000000     2.756000000     2.848000000
H     3.937000000     2.012000000     3.442000000
H     2.913000000     2.995000000     2.916000000
O     5.034000000    -1.225000000    -3.704000000
H     4.609000000    -1.525000000    -4.507000000
H     5.965000000    -1.395000000    -3.847000000
O     3.122000000     1.191000000     0.279000000
H     2.340000000     1.102000000    -0.266000000
H     2.889000000     1.859000000     0.924000000
O     5.115000000    -2.181000000    -0.049000000
H     6.012000000    -2.140000000    -0.381000000
H     5.085000000    -1.518000000     0.641000000
O    -2.441000000    -1.573000000    -0.560000000
H    -1.693000000    -1.043000000    -0.285000000
H    -2.339000000    -2.397000000    -0.082000000
O    -0.799000000    -5.954000000     0.832000000
H    -0.078000000    -5.361000000     1.042000000
H    -0.388000000    -6.667000000     0.344000000
O    -0.414000000    -6.110000000    -3.979000000
H     0.291000000    -6.269000000    -3.352000000
H    -0.215000000    -5.251000000    -4.350000000
O     2.050000000     3.837000000     0.872000000
H     1.245000000     4.082000000     0.416000000
H     2.665000000     4.541000000     0.666000000
O    -4.667000000     3.451000000    -1.435000000
H    -4.038000000     2.769000000    -1.670000000
H    -5.266000000     3.024000000    -0.823000000
O    -3.939000000    -2.652000000    -2.562000000
H    -3.756000000    -3.549000000    -2.284000000
H    -3.452000000    -2.105000000    -1.945000000
O    -1.324000000     1.770000000     5.518000000
H    -0.385000000     1.846000000     5.688000000
H    -1.415000000     1.965000000     4.585000000
O     5.190000000     0.295000000     1.580000000
H     4.264000000     0.498000000     1.451000000
H     5.653000000     0.921000000     1.023000000
O     0.468000000    -3.489000000    -4.636000000
H     0.005000000    -2.657000000    -4.735000000
H     1.393000000    -3.260000000    -4.724000000
O     2.968000000     0.689000000    -4.093000000
H     2.485000000    -0.121000000    -3.932000000
H     3.885000000     0.454000000    -3.952000000
O     5.292000000     0.683000000    -1.431000000
H     5.076000000     0.013000000    -2.080000000
H     4.470000000     0.838000000    -0.965000000
O     4.131000000    -3.741000000     1.957000000
H     4.557000000    -4.598000000     1.922000000
H     4.351000000    -3.331000000     1.120000000
O    -3.563000000     4.359000000     3.253000000
H    -3.096000000     3.944000000     2.528000000
H    -4.144000000     3.675000000     3.586000000
O    -1.419000000    -3.642000000     3.106000000
H    -1.066000000    -2.845000000     2.710000000
H    -0.759000000    -4.311000000     2.925000000
O    -4.339000000    -2.619000000     2.894000000
H    -3.405000000    -2.643000000     2.684000000
H    -4.593000000    -3.539000000     2.961000000
O    -3.648000000     7.210000000     2.344000000
H    -4.548000000     7.520000000     2.245000000
H    -3.728000000     6.257000000     2.398000000
O    -4.237000000     0.559000000    -2.522000000
H    -4.658000000     0.270000000    -3.332000000
H    -3.299000000     0.485000000    -2.700000000
O     1.255000000    -6.772000000    -0.802000000
H     1.768000000    -6.252000000    -1.422000000
H     1.909000000    -7.218000000    -0.264000000
O     2.207000000    -0.171000000     5.868000000
H     2.437000000    -1.073000000     6.091000000
H     2.788000000     0.052000000     5.141000000
O    -0.759000000    -1.085000000    -4.744000000
H    -1.065000000    -0.211000000    -4.501000000
H    -0.217000000    -0.941000000    -5.520000000
O    -2.508000000     5.365000000    -0.363000000
H    -1.648000000     5.583000000    -0.720000000
H    -2.351000000     4.601000000     0.192000000
O    -4.452000000    -0.230000000     1.115000000
H    -4.598000000    -1.003000000     1.660000000
H    -3.698000000    -0.459000000     0.572000000
O    -5.372000000     2.600000000     1.015000000
H    -6.019000000     2.756000000     1.703000000
H    -5.127000000     1.681000000     1.120000000
O     0.251000000    -2.574000000     7.151000000
H     0.143000000    -1.726000000     6.720000000
H     0.998000000    -2.452000000     7.737000000
O    -2.135000000     4.108000000    -2.858000000
H    -1.494000000     4.701000000    -3.249000000
H    -2.491000000     4.596000000    -2.116000000
