158
-3041.01768
C    -1.494000000    -0.119000000    -0.490000000
H    -2.410000000    -0.569000000    -0.865000000
C    -0.318000000    -0.501000000    -1.174000000
H    -0.348000000    -1.061000000    -2.105000000
C     0.992000000    -0.194000000    -0.708000000
H     1.954000000    -0.500000000    -1.169000000
C     1.118000000     0.345000000     0.550000000
H     2.106000000     0.536000000     0.961000000
C    -0.022000000     0.640000000     1.295000000
H     0.137000000     1.008000000     2.306000000
C    -1.319000000     0.335000000     0.795000000
C    -2.485000000     0.605000000     1.734000000
O    -3.363000000     1.382000000     1.338000000
O    -2.333000000     0.262000000     2.950000000
O     4.177000000    -3.531000000     1.903000000
H     4.833000000    -3.573000000     1.207000000
H     4.649000000    -3.790000000     2.694000000
O    -4.149000000     1.237000000    -3.091000000
H    -4.422000000     1.804000000    -2.369000000
H    -4.829000000     1.349000000    -3.754000000
O    -4.175000000    -1.587000000     3.484000000
H    -3.624000000    -0.823000000     3.314000000
H    -3.794000000    -1.988000000     4.266000000
O     0.625000000     1.106000000     6.230000000
H     0.708000000     2.055000000     6.134000000
H     1.517000000     0.804000000     6.404000000
O    -1.667000000    -4.053000000    -3.530000000
H    -2.129000000    -3.215000000    -3.557000000
H    -1.291000000    -4.091000000    -2.651000000
O     1.741000000    -5.146000000     0.706000000
H     1.355000000    -4.550000000     0.065000000
H     2.347000000    -4.600000000     1.207000000
O    -4.659000000     4.172000000    -1.771000000
H    -5.108000000     4.521000000    -2.541000000
H    -3.861000000     4.696000000    -1.702000000
O    -0.231000000     4.054000000    -3.912000000
H    -0.236000000     3.493000000    -3.137000000
H     0.691000000     4.108000000    -4.163000000
O     2.638000000    -1.871000000     3.693000000
H     3.019000000    -0.992000000     3.686000000
H     3.050000000    -2.315000000     2.952000000
O     2.735000000     2.991000000    -4.610000000
H     3.163000000     3.792000000    -4.306000000
H     3.321000000     2.647000000    -5.284000000
O     0.812000000    -3.429000000     5.129000000
H     0.309000000    -3.966000000     4.518000000
H     1.062000000    -2.657000000     4.620000000
O     5.275000000     2.342000000    -3.626000000
H     4.908000000     2.699000000    -4.435000000
H     5.805000000     1.597000000    -3.912000000
O     0.625000000     5.671000000     1.165000000
H    -0.075000000     5.129000000     0.801000000
H     0.348000000     6.570000000     0.989000000
O     6.373000000     2.806000000    -0.975000000
H     6.635000000     1.896000000    -0.832000000
H     5.680000000     2.754000000    -1.633000000
O     1.486000000    -2.443000000    -5.112000000
H     0.690000000    -2.404000000    -4.582000000
H     2.010000000    -3.134000000    -4.707000000
O    -3.945000000     0.933000000     7.105000000
H    -3.405000000     1.133000000     6.341000000
H    -3.316000000     0.768000000     7.807000000
O    -2.771000000     4.629000000     4.092000000
H    -1.853000000     4.743000000     3.847000000
H    -3.252000000     5.204000000     3.498000000
O     4.528000000    -1.904000000    -2.146000000
H     4.024000000    -2.717000000    -2.101000000
H     4.214000000    -1.472000000    -2.940000000
O     0.250000000     2.652000000    -1.629000000
H    -0.042000000     1.752000000    -1.487000000
H    -0.377000000     3.187000000    -1.142000000
O    -2.824000000    -1.295000000    -3.629000000
H    -2.905000000    -0.941000000    -4.514000000
H    -3.173000000    -0.608000000    -3.062000000
O    -1.229000000    -4.097000000    -0.726000000
H    -1.440000000    -3.342000000    -0.178000000
H    -1.666000000    -4.833000000    -0.297000000
O    -1.533000000     4.794000000     0.154000000
H    -2.256000000     4.215000000     0.395000000
H    -1.861000000     5.287000000    -0.599000000
O    -6.169000000    -2.262000000     1.735000000
H    -5.711000000    -2.306000000     0.896000000
H    -5.486000000    -2.050000000     2.370000000
O     3.018000000     2.268000000    -1.244000000
H     3.468000000     3.002000000    -0.827000000
H     2.103000000     2.543000000    -1.292000000
O    -6.313000000     1.760000000     5.111000000
H    -5.407000000     1.469000000     5.214000000
H    -6.548000000     2.118000000     5.967000000
O    -6.878000000     2.879000000    -0.121000000
H    -6.310000000     3.352000000    -0.730000000
H    -6.352000000     2.132000000     0.165000000
O    -5.788000000    -2.209000000    -3.472000000
H    -6.549000000    -1.931000000    -3.981000000
H    -5.036000000    -1.970000000    -4.013000000
O     6.971000000     0.073000000    -3.307000000
H     6.732000000    -0.037000000    -2.387000000
H     7.824000000    -0.354000000    -3.386000000
O    -2.799000000     2.030000000     4.849000000
H    -2.539000000     1.574000000     4.049000000
H    -2.992000000     2.923000000     4.564000000
O     3.988000000     0.191000000     2.359000000
H     4.078000000    -0.250000000     1.514000000
H     4.692000000     0.840000000     2.367000000
O     3.109000000     0.462000000    -3.681000000
H     3.698000000     0.996000000    -3.147000000
H     2.523000000     1.094000000    -4.096000000
O     4.841000000     0.269000000    -0.431000000
H     4.891000000    -0.337000000    -1.171000000
H     4.139000000     0.875000000    -0.666000000
O     2.117000000    -4.944000000    -4.297000000
H     1.306000000    -5.435000000    -4.165000000
H     2.765000000    -5.608000000    -4.531000000
O    -5.795000000     1.192000000     2.499000000
H    -5.034000000     1.532000000     2.028000000
H    -5.812000000     1.689000000     3.317000000
O     0.155000000    -2.315000000     2.300000000
H     0.268000000    -1.670000000     1.603000000
H     0.374000000    -1.841000000     3.103000000
O     3.007000000     1.600000000     4.494000000
H     3.229000000     1.072000000     3.726000000
H     3.571000000     2.370000000     4.426000000
O     7.007000000    -3.143000000    -1.380000000
H     7.370000000    -3.129000000    -2.266000000
H     6.318000000    -2.479000000    -1.392000000
O    -2.710000000    -2.899000000     1.359000000
H    -1.839000000    -2.621000000     1.643000000
H    -3.304000000    -2.535000000     2.015000000
O    -4.680000000     5.794000000     2.804000000
H    -5.327000000     5.696000000     3.503000000
H    -4.737000000     4.977000000     2.309000000
O     3.202000000    -4.422000000    -1.861000000
H     3.299000000    -5.299000000    -1.488000000
H     2.626000000    -4.546000000    -2.616000000
O     5.364000000    -1.235000000    -5.106000000
H     5.380000000    -0.947000000    -6.019000000
H     6.089000000    -0.766000000    -4.694000000
O    -2.359000000    -2.612000000     5.205000000
H    -1.688000000    -1.938000000     5.098000000
H    -1.965000000    -3.403000000     4.839000000
O     2.246000000    -0.087000000    -6.453000000
H     1.531000000    -0.709000000    -6.321000000
H     2.721000000    -0.087000000    -5.622000000
O    -3.936000000     4.031000000     1.086000000
H    -4.404000000     4.027000000     0.251000000
H    -3.817000000     3.106000000     1.299000000
O    -4.844000000    -2.008000000    -0.625000000
H    -4.009000000    -2.337000000    -0.290000000
H    -5.138000000    -2.683000000    -1.237000000
O    -7.880000000    -0.281000000     1.550000000
H    -7.190000000     0.236000000     1.966000000
H    -7.535000000    -1.173000000     1.535000000
O    -0.418000000    -0.668000000     4.440000000
H    -1.026000000    -0.250000000     3.831000000
H    -0.126000000     0.043000000     5.012000000
O    -5.185000000     0.632000000    -0.260000000
H    -4.399000000     0.856000000     0.239000000
H    -5.129000000    -0.316000000    -0.381000000
