158
-3025.18736
C     0.162000000     1.132000000    -0.887000000
H     0.314000000     1.913000000    -1.628000000
C    -0.156000000    -0.095000000    -1.333000000
H    -0.187000000    -0.283000000    -2.403000000
C    -0.273000000    -1.129000000    -0.378000000
H    -0.571000000    -2.197000000    -0.686000000
C    -0.206000000    -0.780000000     1.021000000
H    -0.428000000    -1.534000000     1.772000000
C     0.300000000     0.425000000     1.436000000
H     0.578000000     0.642000000     2.464000000
C     0.436000000     1.425000000     0.441000000
C     0.785000000     2.818000000     0.900000000
O     1.041000000     3.685000000     0.109000000
O     0.835000000     3.073000000     2.115000000
O    -0.558000000     3.875000000    -4.325000000
H    -0.413000000     2.963000000    -4.578000000
H    -1.015000000     4.261000000    -5.072000000
O    -0.206000000    -2.992000000     3.817000000
H     0.211000000    -2.145000000     3.975000000
H    -1.129000000    -2.782000000     3.674000000
O     4.460000000     5.243000000     4.739000000
H     4.201000000     4.956000000     3.863000000
H     5.325000000     4.856000000     4.872000000
O    -1.612000000    -2.458000000    -6.176000000
H    -1.582000000    -1.749000000    -6.818000000
H    -1.077000000    -3.152000000    -6.561000000
O    -3.599000000     0.539000000    -1.326000000
H    -3.663000000    -0.406000000    -1.187000000
H    -2.731000000     0.666000000    -1.707000000
O     0.082000000     0.865000000    -4.917000000
H     0.179000000     1.085000000    -5.844000000
H     0.471000000    -0.006000000    -4.836000000
O     3.238000000     4.636000000     2.214000000
H     3.036000000     5.186000000     1.457000000
H     2.587000000     3.935000000     2.181000000
O    -1.700000000    -4.271000000     1.267000000
H    -1.809000000    -3.708000000     2.034000000
H    -1.390000000    -3.683000000     0.580000000
O    -1.889000000    -1.673000000     6.700000000
H    -1.393000000    -2.474000000     6.867000000
H    -1.271000000    -1.096000000     6.251000000
O     2.095000000     4.230000000    -4.067000000
H     2.430000000     3.479000000    -3.576000000
H     1.172000000     4.028000000    -4.215000000
O     0.924000000     6.938000000    -2.601000000
H     1.084000000     6.286000000    -3.283000000
H     1.100000000     7.778000000    -3.025000000
O     0.203000000    -0.311000000     4.952000000
H     0.842000000     0.276000000     4.549000000
H     0.725000000    -0.886000000     5.512000000
O    -2.490000000     0.935000000     3.532000000
H    -2.426000000     1.711000000     4.089000000
H    -1.604000000     0.573000000     3.522000000
O    -0.250000000     5.870000000     1.841000000
H     0.095000000     5.805000000     2.731000000
H     0.287000000     5.263000000     1.331000000
O     3.500000000    -2.561000000     3.990000000
H     3.602000000    -1.610000000     3.961000000
H     4.183000000    -2.894000000     3.408000000
O    -2.531000000    -1.664000000    -3.817000000
H    -2.499000000    -0.719000000    -3.965000000
H    -2.202000000    -2.045000000    -4.631000000
O     2.847000000     2.594000000    -1.696000000
H     3.298000000     2.072000000    -1.033000000
H     2.581000000     3.390000000    -1.235000000
O     1.783000000    -4.850000000     3.747000000
H     1.099000000    -4.287000000     3.383000000
H     2.593000000    -4.357000000     3.618000000
O    -3.958000000     4.908000000     2.596000000
H    -3.832000000     4.636000000     1.687000000
H    -3.504000000     4.240000000     3.111000000
O    -0.899000000    -7.470000000     0.737000000
H    -0.966000000    -8.388000000     1.001000000
H    -1.714000000    -7.072000000     1.044000000
O    -1.962000000     6.626000000    -0.199000000
H    -1.480000000     6.521000000     0.622000000
H    -1.776000000     5.826000000    -0.690000000
O     4.743000000     7.306000000    -1.009000000
H     4.606000000     6.773000000    -1.792000000
H     4.314000000     6.816000000    -0.308000000
O     0.930000000     9.071000000     0.407000000
H     0.248000000     9.730000000     0.279000000
H     0.523000000     8.249000000     0.134000000
O     1.866000000     2.012000000     4.188000000
H     1.791000000     2.649000000     4.899000000
H     1.437000000     2.434000000     3.444000000
O     1.907000000    -5.613000000    -1.212000000
H     1.786000000    -4.774000000    -0.767000000
H     2.249000000    -6.196000000    -0.534000000
O     3.291000000     0.114000000    -2.817000000
H     2.761000000     0.899000000    -2.676000000
H     2.669000000    -0.610000000    -2.754000000
O     2.014000000    -2.926000000    -0.108000000
H     1.685000000    -2.103000000     0.252000000
H     2.685000000    -3.208000000     0.514000000
O    -2.400000000     3.597000000     4.738000000
H    -1.578000000     4.067000000     4.599000000
H    -2.780000000     4.005000000     5.516000000
O    -2.960000000    -2.778000000     3.650000000
H    -3.585000000    -2.511000000     2.976000000
H    -3.502000000    -3.159000000     4.342000000
O    -0.165000000    -6.845000000     3.785000000
H    -0.907000000    -6.428000000     3.347000000
H     0.499000000    -6.158000000     3.836000000
O     4.627000000     1.125000000    -0.259000000
H     4.768000000     1.196000000    -1.203000000
H     5.342000000     0.568000000     0.049000000
O    -0.345000000     5.388000000     4.678000000
H    -0.823000000     6.206000000     4.816000000
H     0.350000000     5.404000000     5.336000000
O     2.787000000    -4.945000000    -4.610000000
H     3.599000000    -5.436000000    -4.737000000
H     2.093000000    -5.587000000    -4.761000000
O     2.234000000     6.146000000    -0.234000000
H     1.865000000     6.618000000    -0.980000000
H     1.578000000     5.483000000    -0.021000000
O    -5.815000000    -4.130000000    -1.925000000
H    -6.510000000    -4.767000000    -1.757000000
H    -6.018000000    -3.395000000    -1.345000000
O    -3.367000000    -6.548000000     1.635000000
H    -3.234000000    -5.680000000     1.254000000
H    -3.857000000    -6.384000000     2.440000000
O    -0.657000000    -6.819000000    -2.213000000
H    -0.917000000    -6.893000000    -1.295000000
H     0.254000000    -6.528000000    -2.181000000
O     5.259000000     2.637000000     2.423000000
H     4.646000000     3.351000000     2.599000000
H     4.913000000     2.213000000     1.638000000
O     2.470000000    -2.742000000    -2.898000000
H     2.940000000    -3.521000000    -3.194000000
H     2.153000000    -2.970000000    -2.024000000
O     1.879000000     3.749000000     6.563000000
H     2.369000000     2.952000000     6.767000000
H     1.114000000     3.713000000     7.137000000
O    -2.423000000     1.519000000    -3.751000000
H    -1.612000000     1.154000000    -4.105000000
H    -2.615000000     2.268000000    -4.315000000
O     1.450000000    -1.417000000    -5.146000000
H     1.695000000    -1.659000000    -6.040000000
H     1.958000000    -2.007000000    -4.590000000
O    -1.207000000     4.291000000    -1.427000000
H    -0.797000000     4.155000000    -2.281000000
H    -0.521000000     4.076000000    -0.794000000
O    -3.839000000    -1.051000000     1.440000000
H    -3.772000000    -1.340000000     0.530000000
H    -3.487000000    -0.161000000     1.435000000
O    -3.607000000    -2.163000000    -1.077000000
H    -4.205000000    -2.885000000    -1.268000000
H    -2.987000000    -2.166000000    -1.806000000
O     4.128000000     0.147000000     3.848000000
H     3.342000000     0.681000000     3.965000000
H     4.853000000     0.759000000     3.973000000
O    -3.768000000     3.444000000     0.169000000
H    -3.001000000     3.034000000    -0.230000000
H    -4.235000000     2.721000000     0.588000000
O    -1.881000000    -5.050000000    -4.107000000
H    -1.491000000    -5.460000000    -3.335000000
H    -1.400000000    -4.229000000    -4.211000000
