158
-2992.47774
C    -0.182000000     1.296000000    -0.702000000
H    -0.153000000     2.160000000    -1.361000000
C     0.096000000     0.084000000    -1.279000000
H     0.378000000    -0.068000000    -2.318000000
C     0.164000000    -1.067000000    -0.520000000
H     0.682000000    -2.026000000    -0.922000000
C    -0.144000000    -1.013000000     0.813000000
H    -0.087000000    -1.972000000     1.322000000
C    -0.364000000     0.224000000     1.440000000
H    -0.600000000     0.199000000     2.500000000
C    -0.345000000     1.421000000     0.698000000
C    -0.506000000     2.815000000     1.251000000
O    -0.277000000     3.760000000     0.558000000
O    -0.765000000     2.999000000     2.400000000
O    -0.714000000    -1.694000000    -6.415000000
H    -1.239000000    -1.897000000    -5.641000000
H    -0.127000000    -0.994000000    -6.129000000
O    -2.008000000     3.008000000    -4.165000000
H    -2.348000000     3.724000000    -4.703000000
H    -1.412000000     3.434000000    -3.549000000
O    -1.192000000    -4.924000000    -6.311000000
H    -0.466000000    -4.528000000    -6.792000000
H    -1.295000000    -4.371000000    -5.536000000
O    -3.060000000     1.848000000     3.314000000
H    -3.491000000     2.701000000     3.377000000
H    -2.171000000     2.051000000     3.022000000
O    -1.838000000    -2.900000000    -1.625000000
H    -1.026000000    -3.072000000    -1.148000000
H    -2.512000000    -3.361000000    -1.126000000
O     2.664000000     3.890000000     2.930000000
H     2.893000000     3.351000000     3.687000000
H     1.778000000     3.611000000     2.697000000
O    -1.091000000     7.821000000    -1.253000000
H    -0.992000000     8.218000000    -2.118000000
H    -0.709000000     8.460000000    -0.651000000
O     1.422000000     2.613000000    -4.711000000
H     1.095000000     3.423000000    -5.104000000
H     2.102000000     2.900000000    -4.102000000
O     1.765000000    -2.765000000     3.043000000
H     2.198000000    -2.745000000     2.190000000
H     2.059000000    -3.584000000     3.442000000
O     1.578000000     7.347000000     2.523000000
H     0.703000000     7.098000000     2.226000000
H     2.106000000     7.366000000     1.725000000
O    -4.143000000     5.693000000     4.984000000
H    -3.773000000     5.001000000     4.437000000
H    -4.496000000     6.328000000     4.361000000
O    -4.213000000     6.913000000    -1.134000000
H    -3.780000000     7.539000000    -1.715000000
H    -3.512000000     6.328000000    -0.848000000
O    -3.669000000     0.082000000     5.429000000
H    -2.847000000    -0.330000000     5.697000000
H    -3.415000000     0.692000000     4.737000000
O    -2.480000000     2.875000000     6.515000000
H    -2.908000000     2.137000000     6.081000000
H    -1.706000000     3.050000000     5.981000000
O    -0.941000000     6.906000000     5.011000000
H    -1.446000000     6.096000000     4.941000000
H    -1.534000000     7.587000000     4.694000000
O     4.725000000     2.353000000     0.469000000
H     3.892000000     2.771000000     0.686000000
H     5.180000000     2.994000000    -0.077000000
O     3.574000000    -2.780000000     0.699000000
H     3.856000000    -3.245000000    -0.089000000
H     3.949000000    -1.904000000     0.607000000
O    -3.572000000    -0.530000000    -1.666000000
H    -3.606000000    -0.071000000    -0.826000000
H    -3.133000000    -1.357000000    -1.469000000
O     0.201000000    -4.639000000    -0.767000000
H     0.690000000    -4.762000000     0.046000000
H     0.544000000    -5.311000000    -1.356000000
O     1.748000000    -4.342000000    -4.515000000
H     2.364000000    -4.807000000    -3.949000000
H     2.007000000    -3.423000000    -4.446000000
O     2.173000000     4.358000000    -0.434000000
H     1.261000000     4.115000000    -0.271000000
H     2.367000000     5.018000000     0.231000000
O     4.728000000    -4.763000000    -1.792000000
H     4.330000000    -5.588000000    -1.514000000
H     4.617000000    -4.752000000    -2.743000000
O    -1.997000000    -1.515000000    -3.955000000
H    -2.324000000    -0.760000000    -3.467000000
H    -1.871000000    -2.194000000    -3.292000000
O    -0.652000000     3.824000000     4.807000000
H     0.285000000     3.883000000     4.991000000
H    -0.700000000     3.506000000     3.905000000
O     2.422000000    -1.696000000    -4.306000000
H     1.798000000    -1.013000000    -4.060000000
H     2.631000000    -1.510000000    -5.222000000
O    -1.679000000    -6.082000000    -2.368000000
H    -1.659000000    -5.839000000    -1.442000000
H    -2.082000000    -5.331000000    -2.804000000
O     4.378000000    -0.828000000    -2.883000000
H     3.637000000    -1.200000000    -3.361000000
H     5.064000000    -0.729000000    -3.544000000
O     4.678000000    -0.342000000    -0.313000000
H     4.432000000    -0.523000000    -1.220000000
H     4.594000000     0.608000000    -0.226000000
O     2.909000000    -5.294000000     1.676000000
H     3.472000000    -6.067000000     1.640000000
H     3.442000000    -4.592000000     1.303000000
O    -3.004000000     4.758000000     2.568000000
H    -2.095000000     4.498000000     2.717000000
H    -3.269000000     4.264000000     1.791000000
O    -5.625000000    -0.968000000     2.386000000
H    -6.066000000    -1.559000000     1.776000000
H    -4.701000000    -1.215000000     2.332000000
O    -1.137000000    -4.353000000     2.837000000
H    -0.731000000    -3.544000000     3.149000000
H    -0.455000000    -5.017000000     2.939000000
O     3.593000000     2.028000000     4.764000000
H     4.532000000     1.942000000     4.597000000
H     3.247000000     1.144000000     4.647000000
O    -3.079000000    -2.499000000     2.076000000
H    -2.273000000    -2.891000000     2.412000000
H    -3.378000000    -3.107000000     1.400000000
O    -0.518000000     6.348000000     1.192000000
H    -0.218000000     6.530000000     0.301000000
H    -0.712000000     5.411000000     1.192000000
O    -4.045000000     1.953000000    -2.245000000
H    -3.687000000     1.142000000    -1.885000000
H    -3.363000000     2.276000000    -2.833000000
O    -3.685000000    -4.171000000    -0.171000000
H    -4.130000000    -4.733000000     0.463000000
H    -4.202000000    -4.257000000    -0.972000000
O     1.801000000    -6.850000000    -1.996000000
H     1.240000000    -7.586000000    -1.753000000
H     2.662000000    -7.079000000    -1.646000000
O     0.739000000    -0.679000000     4.584000000
H     0.920000000    -1.032000000     3.712000000
H     1.589000000    -0.684000000     5.025000000
O     0.326000000     0.099000000    -4.731000000
H    -0.524000000     0.204000000    -4.303000000
H     0.763000000     0.941000000    -4.606000000
O     3.526000000     1.429000000    -6.127000000
H     4.061000000     2.221000000    -6.083000000
H     2.677000000     1.693000000    -5.773000000
O    -2.068000000     4.803000000    -1.220000000
H    -1.429000000     5.247000000    -1.778000000
H    -1.564000000     4.121000000    -0.775000000
O     3.119000000     3.470000000    -2.727000000
H     3.980000000     3.092000000    -2.546000000
H     2.821000000     3.803000000    -1.880000000
O    -3.183000000     0.544000000     0.911000000
H    -3.285000000     0.589000000     1.862000000
H    -2.416000000    -0.013000000     0.779000000
O    -4.277000000     3.846000000     0.028000000
H    -4.221000000     2.898000000    -0.093000000
H    -3.706000000     4.207000000    -0.650000000
O    -0.996000000    -0.340000000     6.633000000
H    -0.372000000    -0.272000000     5.910000000
H    -0.490000000    -0.723000000     7.350000000
O    -0.135000000     5.534000000    -2.861000000
H     0.643000000     5.590000000    -3.415000000
H    -0.415000000     6.442000000    -2.748000000
O    -1.960000000    -3.126000000     5.839000000
H    -1.179000000    -3.453000000     6.286000000
H    -1.633000000    -2.440000000     5.257000000
