158
-3020.87198
C    -0.901000000     0.649000000    -1.031000000
H    -1.483000000     1.102000000    -1.830000000
C    -0.421000000    -0.645000000    -1.122000000
H    -0.744000000    -1.227000000    -1.982000000
C     0.442000000    -1.173000000    -0.100000000
H     0.733000000    -2.243000000    -0.167000000
C     0.692000000    -0.329000000     0.989000000
H     1.294000000    -0.757000000     1.786000000
C     0.194000000     0.908000000     1.111000000
H     0.300000000     1.502000000     2.016000000
C    -0.603000000     1.419000000     0.088000000
C    -1.191000000     2.822000000     0.172000000
O    -1.858000000     3.242000000    -0.724000000
O    -1.043000000     3.324000000     1.280000000
O     4.293000000    -4.072000000    -1.359000000
H     3.443000000    -4.445000000    -1.125000000
H     4.278000000    -3.190000000    -0.987000000
O    -1.118000000     6.079000000    -3.850000000
H    -1.312000000     6.997000000    -4.040000000
H    -1.356000000     5.970000000    -2.929000000
O    -2.336000000    -1.454000000     1.068000000
H    -1.973000000    -1.870000000     1.851000000
H    -1.682000000    -0.802000000     0.819000000
O     3.304000000     1.869000000     2.463000000
H     3.920000000     2.348000000     1.908000000
H     2.457000000     1.976000000     2.029000000
O     1.776000000    -3.510000000    -4.449000000
H     1.442000000    -3.791000000    -3.597000000
H     1.852000000    -4.319000000    -4.955000000
O    -3.452000000    -1.184000000    -3.645000000
H    -3.289000000    -1.994000000    -4.128000000
H    -3.658000000    -1.473000000    -2.756000000
O    -2.437000000     0.940000000    -4.895000000
H    -2.746000000     0.254000000    -4.303000000
H    -2.085000000     1.615000000    -4.315000000
O    -1.245000000     6.683000000     1.744000000
H    -1.826000000     6.007000000     2.092000000
H    -0.555000000     6.768000000     2.403000000
O    -1.069000000    -5.128000000     1.289000000
H    -1.263000000    -4.546000000     0.554000000
H    -0.967000000    -5.992000000     0.890000000
O    -7.189000000     3.421000000    -0.785000000
H    -7.239000000     4.284000000    -1.196000000
H    -6.252000000     3.268000000    -0.662000000
O     0.355000000     2.592000000     4.465000000
H     0.651000000     3.162000000     3.755000000
H     1.154000000     2.178000000     4.790000000
O     5.010000000    -3.915000000    -4.530000000
H     4.151000000    -3.894000000    -4.109000000
H     4.843000000    -3.630000000    -5.429000000
O    -3.214000000    -3.778000000    -4.832000000
H    -3.897000000    -4.212000000    -5.343000000
H    -2.420000000    -3.878000000    -5.359000000
O    -4.676000000     0.522000000    -6.304000000
H    -5.351000000     0.312000000    -5.658000000
H    -3.863000000     0.549000000    -5.801000000
O     3.122000000    -6.773000000    -4.081000000
H     4.072000000    -6.665000000    -4.119000000
H     2.939000000    -6.969000000    -3.162000000
O     3.621000000    -2.166000000     0.672000000
H     3.813000000    -1.559000000     1.386000000
H     2.910000000    -2.712000000     1.006000000
O     6.155000000    -5.384000000     0.220000000
H     5.792000000    -6.266000000     0.298000000
H     5.407000000    -4.838000000    -0.026000000
O    -3.745000000     0.259000000     3.257000000
H    -3.304000000     1.093000000     3.095000000
H    -3.037000000    -0.386000000     3.274000000
O    -4.153000000     4.578000000     3.856000000
H    -4.585000000     5.120000000     3.196000000
H    -3.611000000     3.972000000     3.351000000
O    -4.597000000     2.911000000     0.218000000
H    -4.509000000     2.314000000    -0.524000000
H    -3.773000000     3.398000000     0.234000000
O     0.296000000    -4.533000000    -1.473000000
H     0.127000000    -5.424000000    -1.166000000
H    -0.574000000    -4.144000000    -1.568000000
O     2.548000000    -2.677000000     4.107000000
H     2.246000000    -3.371000000     3.522000000
H     1.897000000    -2.654000000     4.808000000
O     1.019000000     4.365000000     2.499000000
H     1.409000000     5.091000000     2.012000000
H     0.357000000     4.008000000     1.907000000
O     2.750000000    -6.448000000     2.469000000
H     2.186000000    -7.025000000     2.985000000
H     3.030000000    -6.987000000     1.729000000
O     5.939000000    -0.048000000     0.019000000
H     5.437000000    -0.620000000     0.600000000
H     6.014000000     0.776000000     0.500000000
O    -0.735000000    -3.645000000    -6.424000000
H    -0.214000000    -2.963000000    -6.000000000
H    -0.402000000    -3.679000000    -7.321000000
O    -1.652000000     3.352000000    -3.533000000
H    -1.526000000     4.275000000    -3.753000000
H    -1.488000000     3.306000000    -2.591000000
O    -0.349000000     8.507000000    -0.220000000
H    -0.612000000     8.003000000     0.550000000
H     0.568000000     8.271000000    -0.359000000
O    -2.220000000     2.572000000     3.575000000
H    -1.574000000     2.340000000     4.242000000
H    -1.717000000     3.029000000     2.902000000
O     4.496000000    -0.829000000     2.985000000
H     4.258000000     0.098000000     3.005000000
H     3.815000000    -1.262000000     3.501000000
O     2.740000000     0.540000000    -1.476000000
H     2.020000000     0.243000000    -0.920000000
H     2.742000000    -0.072000000    -2.213000000
O     6.303000000    -3.096000000     3.183000000
H     5.656000000    -2.391000000     3.173000000
H     6.569000000    -3.190000000     2.269000000
O    -1.622000000    -4.293000000     3.966000000
H    -1.235000000    -4.650000000     3.167000000
H    -1.334000000    -4.889000000     4.658000000
O     1.628000000     4.539000000    -2.622000000
H     1.942000000     4.881000000    -3.459000000
H     0.674000000     4.562000000    -2.695000000
O    -0.525000000     5.661000000     4.757000000
H    -0.234000000     4.861000000     4.320000000
H    -1.060000000     5.354000000     5.488000000
O     3.247000000    -0.932000000    -4.010000000
H     3.019000000    -0.327000000    -4.717000000
H     2.684000000    -1.692000000    -4.155000000
O    -4.918000000     5.634000000    -2.760000000
H    -4.043000000     6.010000000    -2.658000000
H    -4.787000000     4.692000000    -2.653000000
O    -4.489000000     2.878000000    -2.976000000
H    -4.859000000     2.037000000    -2.708000000
H    -3.554000000     2.706000000    -3.082000000
O    -2.502000000    -4.240000000    -1.805000000
H    -3.281000000    -4.622000000    -1.402000000
H    -2.779000000    -4.009000000    -2.691000000
O    -1.596000000    -1.638000000     3.580000000
H    -1.033000000    -1.340000000     4.295000000
H    -1.804000000    -2.546000000     3.802000000
O    -5.320000000     0.640000000    -1.451000000
H    -6.203000000     0.285000000    -1.559000000
H    -4.774000000    -0.127000000    -1.278000000
O     3.539000000     3.134000000    -1.359000000
H     2.852000000     3.627000000    -1.807000000
H     3.158000000     2.269000000    -1.213000000
O    -2.196000000     5.918000000    -1.198000000
H    -2.358000000     6.440000000    -0.413000000
H    -2.271000000     5.011000000    -0.903000000
O     2.976000000     2.191000000     5.997000000
H     3.553000000     1.510000000     6.341000000
H     3.490000000     2.615000000     5.309000000
O    -5.960000000     1.505000000     2.146000000
H    -5.566000000     2.108000000     1.515000000
H    -5.220000000     1.010000000     2.499000000
O    -3.912000000    -1.696000000    -1.207000000
H    -4.558000000    -2.292000000    -0.826000000
H    -3.086000000    -1.938000000    -0.788000000
O     0.441000000    -0.371000000     5.683000000
H    -0.047000000     0.347000000     6.085000000
H     1.347000000    -0.228000000     5.959000000
O     1.580000000    -4.022000000     1.928000000
H     2.001000000    -4.865000000     2.095000000
H     0.643000000    -4.220000000     1.916000000
