158
-3053.23769
C    -0.098000000     0.816000000    -1.260000000
H    -0.249000000     1.323000000    -2.209000000
C    -0.258000000    -0.571000000    -1.144000000
H    -0.594000000    -1.193000000    -1.970000000
C    -0.093000000    -1.257000000     0.043000000
H    -0.123000000    -2.306000000     0.117000000
C     0.278000000    -0.501000000     1.182000000
H     0.405000000    -1.027000000     2.124000000
C     0.514000000     0.924000000     1.139000000
H     0.829000000     1.555000000     1.966000000
C     0.151000000     1.544000000    -0.081000000
C     0.271000000     3.057000000    -0.180000000
O    -0.541000000     3.674000000    -0.830000000
O     1.085000000     3.680000000     0.504000000
O    -1.038000000     3.687000000    -6.086000000
H    -1.968000000     3.495000000    -6.208000000
H    -0.984000000     4.061000000    -5.207000000
O    -2.607000000    -0.295000000     3.151000000
H    -2.296000000    -0.195000000     2.252000000
H    -2.436000000    -1.213000000     3.363000000
O    -1.473000000     0.270000000    -4.600000000
H    -2.153000000    -0.404000000    -4.586000000
H    -0.665000000    -0.209000000    -4.786000000
O     2.264000000     2.616000000    -3.041000000
H     2.560000000     1.720000000    -2.883000000
H     1.842000000     2.582000000    -3.899000000
O     4.173000000    -6.039000000     0.400000000
H     3.898000000    -5.127000000     0.492000000
H     5.130000000    -6.001000000     0.390000000
O    -3.021000000     3.700000000    -0.032000000
H    -3.253000000     4.033000000    -0.899000000
H    -2.064000000     3.684000000    -0.030000000
O     1.979000000    -4.280000000    -2.418000000
H     1.594000000    -4.390000000    -1.548000000
H     2.633000000    -4.976000000    -2.479000000
O     1.041000000     0.851000000     6.572000000
H     1.907000000     0.642000000     6.923000000
H     1.221000000     1.296000000     5.743000000
O     2.916000000     1.036000000     4.335000000
H     3.748000000     1.233000000     4.765000000
H     2.978000000     1.469000000     3.483000000
O     0.050000000    -4.680000000    -5.139000000
H     0.675000000    -4.349000000    -4.494000000
H    -0.682000000    -5.008000000    -4.617000000
O     1.023000000     2.027000000    -5.421000000
H     0.319000000     2.627000000    -5.670000000
H     1.657000000     2.092000000    -6.135000000
O    -3.305000000     3.600000000     2.737000000
H    -3.175000000     3.314000000     1.832000000
H    -3.934000000     4.318000000     2.673000000
O    -2.626000000    -2.680000000     4.956000000
H    -1.900000000    -2.773000000     5.573000000
H    -3.336000000    -2.306000000     5.478000000
O    -4.261000000    -2.263000000     1.235000000
H    -4.498000000    -1.832000000     2.057000000
H    -3.485000000    -2.779000000     1.451000000
O     0.171000000     6.252000000     0.525000000
H    -0.199000000     6.249000000     1.408000000
H     0.389000000     5.336000000     0.354000000
O    -4.247000000    -5.931000000     1.054000000
H    -4.252000000    -5.233000000     1.709000000
H    -4.851000000    -6.589000000     1.400000000
O    -2.700000000     2.350000000    -3.430000000
H    -2.398000000     1.811000000    -4.162000000
H    -2.494000000     1.834000000    -2.651000000
O     3.644000000     3.706000000     1.142000000
H     3.948000000     4.430000000     0.595000000
H     2.690000000     3.731000000     1.064000000
O    -6.213000000    -1.297000000    -0.300000000
H    -5.989000000    -0.450000000     0.085000000
H    -5.522000000    -1.887000000     0.001000000
O    -1.464000000     7.822000000    -0.968000000
H    -0.944000000     7.153000000    -0.523000000
H    -1.364000000     8.603000000    -0.424000000
O     0.743000000    -1.081000000    -5.670000000
H     1.251000000    -1.491000000    -4.969000000
H     0.975000000    -0.153000000    -5.621000000
O     1.628000000     5.340000000    -2.023000000
H     1.762000000     4.544000000    -2.538000000
H     1.202000000     5.037000000    -1.221000000
O     2.745000000    -4.080000000     4.206000000
H     2.327000000    -3.219000000     4.237000000
H     3.169000000    -4.171000000     5.059000000
O     2.430000000     5.344000000     5.442000000
H     2.010000000     5.030000000     4.642000000
H     2.545000000     4.558000000     5.977000000
O    -1.360000000     2.866000000     4.882000000
H    -0.557000000     3.025000000     4.385000000
H    -2.065000000     3.009000000     4.250000000
O     5.026000000     3.095000000     3.293000000
H     4.366000000     3.354000000     2.650000000
H     5.852000000     3.116000000     2.809000000
O     3.145000000    -1.220000000    -0.011000000
H     3.141000000    -2.044000000     0.474000000
H     2.301000000    -0.817000000     0.193000000
O    -1.974000000     0.581000000    -7.172000000
H    -1.114000000     0.391000000    -7.548000000
H    -1.836000000     0.539000000    -6.225000000
O    -3.701000000    -6.558000000    -1.604000000
H    -3.850000000    -6.679000000    -0.667000000
H    -4.537000000    -6.236000000    -1.941000000
O     3.314000000     0.196000000    -2.653000000
H     3.151000000     0.057000000    -1.720000000
H     3.168000000    -0.662000000    -3.052000000
O     3.152000000    -3.513000000     1.487000000
H     2.347000000    -3.994000000     1.295000000
H     3.320000000    -3.687000000     2.413000000
O     0.168000000    -4.878000000     2.924000000
H     0.315000000    -4.190000000     3.573000000
H     0.239000000    -5.694000000     3.420000000
O     2.788000000     6.980000000     1.691000000
H     2.003000000     7.107000000     1.157000000
H     3.369000000     6.454000000     1.141000000
O     2.648000000    -2.210000000    -4.084000000
H     3.312000000    -2.621000000    -4.637000000
H     2.362000000    -2.907000000    -3.495000000
O    -3.555000000     5.389000000    -2.082000000
H    -3.775000000     5.974000000    -1.357000000
H    -2.795000000     5.796000000    -2.496000000
O    -1.572000000     5.928000000     2.873000000
H    -2.192000000     6.345000000     3.471000000
H    -1.900000000     5.034000000     2.773000000
O    -0.952000000    -6.762000000    -1.188000000
H    -1.854000000    -6.474000000    -1.328000000
H    -1.035000000    -7.586000000    -0.709000000
O     0.828000000     3.840000000     3.389000000
H     0.228000000     4.580000000     3.486000000
H     0.966000000     3.766000000     2.445000000
O     0.869000000    -4.786000000     0.202000000
H     0.255000000    -5.305000000    -0.318000000
H     0.507000000    -4.805000000     1.088000000
O    -2.194000000    -3.465000000     2.334000000
H    -2.386000000    -3.460000000     3.272000000
H    -1.507000000    -4.125000000     2.234000000
O    -1.047000000     4.782000000    -3.237000000
H    -0.686000000     4.658000000    -2.358000000
H    -1.747000000     4.133000000    -3.302000000
O     5.548000000     1.728000000     0.833000000
H     5.628000000     1.262000000     1.665000000
H     4.744000000     2.241000000     0.923000000
O    -2.230000000    -4.869000000    -3.488000000
H    -2.313000000    -5.821000000    -3.540000000
H    -2.809000000    -4.618000000    -2.768000000
O    -5.108000000     1.903000000     0.301000000
H    -4.447000000     2.591000000     0.226000000
H    -5.634000000     1.988000000    -0.494000000
O    -3.186000000    -1.617000000    -3.838000000
H    -2.752000000    -2.371000000    -3.440000000
H    -3.969000000    -1.482000000    -3.305000000
O     1.863000000    -1.379000000     4.459000000
H     0.986000000    -0.999000000     4.497000000
H     2.448000000    -0.624000000     4.390000000
O    -3.375000000    -3.319000000    -1.342000000
H    -3.145000000    -2.743000000    -0.612000000
H    -3.801000000    -4.070000000    -0.929000000
O     4.362000000     4.749000000    -2.786000000
H     3.967000000     3.882000000    -2.692000000
H     4.176000000     5.187000000    -1.955000000
