158
-2997.57921
C     1.461000000     0.059000000     0.473000000
H     2.434000000     0.293000000     0.899000000
C     0.927000000     0.879000000    -0.500000000
H     1.485000000     1.644000000    -1.032000000
C    -0.354000000     0.646000000    -1.005000000
H    -0.692000000     1.289000000    -1.816000000
C    -1.062000000    -0.348000000    -0.457000000
H    -2.050000000    -0.640000000    -0.805000000
C    -0.645000000    -1.027000000     0.662000000
H    -1.314000000    -1.657000000     1.243000000
C     0.678000000    -0.910000000     1.091000000
C     0.990000000    -1.551000000     2.423000000
O     0.361000000    -2.490000000     2.871000000
O     1.740000000    -1.002000000     3.129000000
O     2.331000000    -4.865000000     0.900000000
H     1.878000000    -5.653000000     0.599000000
H     2.957000000    -5.182000000     1.551000000
O    -0.589000000    -3.823000000     5.032000000
H    -0.629000000    -4.635000000     4.525000000
H    -0.113000000    -3.213000000     4.469000000
O     6.402000000     0.336000000    -0.234000000
H     5.608000000     0.253000000    -0.763000000
H     7.118000000     0.265000000    -0.865000000
O     3.880000000     0.017000000     4.324000000
H     3.320000000    -0.495000000     3.742000000
H     4.166000000     0.759000000     3.791000000
O    -2.498000000    -0.438000000     5.289000000
H    -1.564000000    -0.512000000     5.094000000
H    -2.763000000     0.387000000     4.881000000
O    -2.961000000    -4.376000000     0.492000000
H    -2.816000000    -4.860000000     1.305000000
H    -2.170000000    -3.850000000     0.381000000
O    -3.853000000     3.545000000    -2.172000000
H    -4.127000000     2.895000000    -2.818000000
H    -3.132000000     4.013000000    -2.593000000
O    -4.957000000     0.942000000     3.632000000
H    -4.227000000     0.566000000     3.140000000
H    -5.386000000     1.532000000     3.012000000
O     2.183000000    -6.576000000     5.369000000
H     2.219000000    -6.664000000     4.417000000
H     2.254000000    -5.635000000     5.526000000
O    -5.847000000    -0.753000000    -4.603000000
H    -5.047000000    -0.228000000    -4.624000000
H    -5.601000000    -1.581000000    -5.015000000
O     7.466000000     2.740000000     0.828000000
H     7.935000000     2.437000000     1.606000000
H     6.879000000     2.017000000     0.606000000
O     1.999000000     3.544000000     0.688000000
H     1.329000000     2.866000000     0.768000000
H     2.828000000     3.072000000     0.766000000
O     4.022000000    -0.592000000    -1.468000000
H     3.842000000    -0.275000000    -2.353000000
H     3.886000000    -1.538000000    -1.521000000
O     0.382000000     4.891000000    -1.043000000
H     0.854000000     4.640000000    -1.837000000
H     1.009000000     4.745000000    -0.335000000
O     0.604000000     3.771000000    -6.665000000
H    -0.174000000     4.285000000    -6.445000000
H     1.312000000     4.414000000    -6.702000000
O    -3.816000000     1.196000000    -3.706000000
H    -4.005000000     0.685000000    -2.919000000
H    -3.030000000     0.790000000    -4.072000000
O    -5.081000000     4.084000000     0.180000000
H    -6.018000000     4.042000000    -0.010000000
H    -4.661000000     3.745000000    -0.610000000
O     1.815000000     1.990000000     3.390000000
H     1.006000000     2.277000000     2.969000000
H     1.798000000     1.035000000     3.318000000
O    -0.921000000    -3.447000000     7.829000000
H    -0.246000000    -3.980000000     8.248000000
H    -0.831000000    -3.637000000     6.895000000
O    -3.567000000    -2.874000000     4.817000000
H    -3.511000000    -1.919000000     4.786000000
H    -2.656000000    -3.166000000     4.848000000
O    -4.734000000    -0.135000000    -1.592000000
H    -4.738000000    -1.092000000    -1.568000000
H    -5.660000000     0.108000000    -1.587000000
O     3.936000000    -3.221000000    -1.163000000
H     4.273000000    -4.033000000    -1.542000000
H     3.350000000    -3.508000000    -0.462000000
O     3.979000000    -1.995000000     6.080000000
H     3.863000000    -1.196000000     5.565000000
H     3.438000000    -2.647000000     5.635000000
O     0.175000000    -1.495000000    -4.899000000
H     0.279000000    -0.611000000    -5.252000000
H    -0.309000000    -1.967000000    -5.577000000
O    -0.211000000    -4.642000000     1.506000000
H    -0.041000000    -3.752000000     1.815000000
H     0.620000000    -4.924000000     1.123000000
O     4.196000000     2.350000000     0.358000000
H     4.689000000     2.117000000     1.145000000
H     4.765000000     2.089000000    -0.366000000
O    -1.843000000     3.580000000     0.104000000
H    -1.015000000     3.884000000    -0.268000000
H    -2.474000000     3.668000000    -0.610000000
O     0.737000000     3.165000000    -3.889000000
H     1.060000000     3.554000000    -4.701000000
H     0.883000000     2.225000000    -3.998000000
O     0.374000000    -2.781000000    -2.346000000
H     0.348000000    -2.064000000    -1.712000000
H     0.582000000    -2.356000000    -3.179000000
O    -0.322000000     2.882000000     2.321000000
H    -0.987000000     3.096000000     1.667000000
H    -0.822000000     2.646000000     3.103000000
O     0.169000000     0.867000000    -6.779000000
H    -0.788000000     0.865000000    -6.792000000
H     0.406000000     1.795000000    -6.773000000
O    -4.326000000     1.364000000     0.894000000
H    -4.307000000     0.838000000     0.094000000
H    -3.527000000     1.889000000     0.854000000
O     0.363000000    -0.765000000     5.382000000
H     0.696000000     0.131000000     5.420000000
H     0.665000000    -1.097000000     4.536000000
O    -2.519000000     1.115000000    -6.881000000
H    -3.117000000     1.021000000    -7.622000000
H    -2.631000000     2.022000000    -6.595000000
O    -4.944000000    -2.889000000    -1.099000000
H    -4.647000000    -3.209000000    -0.247000000
H    -4.782000000    -3.617000000    -1.699000000
O     4.743000000    -4.484000000     3.345000000
H     5.310000000    -4.386000000     4.110000000
H     5.096000000    -5.245000000     2.882000000
O    -2.280000000     3.869000000    -5.947000000
H    -3.012000000     4.354000000    -6.329000000
H    -2.215000000     4.200000000    -5.052000000
O    -3.632000000     6.152000000    -0.079000000
H    -4.055000000     5.362000000     0.259000000
H    -3.029000000     5.832000000    -0.750000000
O     1.526000000    -5.041000000    -2.580000000
H     2.319000000    -5.014000000    -2.045000000
H     1.107000000    -4.193000000    -2.430000000
O     2.283000000    -3.772000000     4.532000000
H     3.005000000    -3.842000000     3.906000000
H     1.584000000    -3.337000000     4.043000000
O    -5.985000000     2.656000000    -5.149000000
H    -5.925000000     2.880000000    -6.078000000
H    -5.130000000     2.283000000    -4.936000000
O     1.347000000     5.271000000     3.059000000
H     1.748000000     4.502000000     2.655000000
H     0.529000000     4.945000000     3.434000000
O     5.938000000     0.789000000     2.471000000
H     6.256000000     0.383000000     3.277000000
H     6.510000000     0.441000000     1.786000000
O    -1.698000000     4.631000000    -3.104000000
H    -1.355000000     5.510000000    -2.942000000
H    -0.919000000     4.080000000    -3.181000000
O     4.119000000     4.770000000     2.426000000
H     4.625000000     5.536000000     2.156000000
H     3.845000000     4.362000000     1.604000000
O     0.853000000     2.241000000     6.234000000
H     1.469000000     2.081000000     5.519000000
H     1.350000000     2.041000000     7.027000000
O     6.504000000    -2.685000000    -0.171000000
H     6.562000000    -1.851000000    -0.638000000
H     5.612000000    -2.991000000    -0.338000000
O    -0.628000000    -6.251000000     3.721000000
H    -0.580000000    -7.143000000     3.376000000
H    -0.495000000    -5.691000000     2.955000000
