158
-3036.87291
C    -0.533000000     1.171000000    -0.727000000
H    -0.860000000     1.903000000    -1.461000000
C    -0.102000000    -0.044000000    -1.279000000
H    -0.202000000    -0.242000000    -2.343000000
C     0.277000000    -1.119000000    -0.471000000
H     0.584000000    -2.104000000    -0.896000000
C     0.353000000    -0.941000000     0.893000000
H     0.622000000    -1.745000000     1.572000000
C     0.162000000     0.356000000     1.406000000
H     0.307000000     0.595000000     2.457000000
C    -0.230000000     1.464000000     0.621000000
C    -0.491000000     2.805000000     1.222000000
O    -0.701000000     3.739000000     0.519000000
O    -0.314000000     3.112000000     2.405000000
O     0.762000000     4.198000000    -1.750000000
H     1.651000000     4.042000000    -1.432000000
H     0.209000000     4.094000000    -0.976000000
O    -4.512000000     3.915000000     0.208000000
H    -5.059000000     4.087000000     0.974000000
H    -5.113000000     3.978000000    -0.535000000
O    -2.164000000     1.582000000    -3.830000000
H    -2.326000000     2.421000000    -4.261000000
H    -1.328000000     1.286000000    -4.190000000
O     0.060000000    -0.988000000     5.085000000
H     0.768000000    -1.448000000     4.635000000
H     0.489000000    -0.242000000     5.505000000
O     3.081000000     0.076000000     0.529000000
H     3.133000000     1.032000000     0.507000000
H     2.184000000    -0.108000000     0.810000000
O    -5.053000000     5.688000000     2.718000000
H    -4.110000000     5.530000000     2.682000000
H    -5.406000000     4.930000000     3.184000000
O    -1.052000000    -2.717000000    -3.342000000
H    -1.554000000    -3.497000000    -3.107000000
H    -1.325000000    -2.517000000    -4.237000000
O    -2.484000000     4.810000000    -1.450000000
H    -1.922000000     4.183000000    -0.995000000
H    -3.313000000     4.780000000    -0.972000000
O     5.115000000    -0.085000000    -0.988000000
H     4.693000000     0.035000000    -1.838000000
H     4.391000000    -0.104000000    -0.362000000
O    -4.181000000     0.222000000    -4.797000000
H    -4.429000000     1.008000000    -5.284000000
H    -3.358000000     0.456000000    -4.367000000
O     2.517000000    -3.562000000    -5.639000000
H     2.403000000    -3.103000000    -4.807000000
H     3.086000000    -4.303000000    -5.427000000
O     0.160000000     3.427000000     7.485000000
H     1.116000000     3.473000000     7.466000000
H    -0.058000000     2.720000000     6.878000000
O     2.736000000    -0.112000000    -5.891000000
H     2.621000000    -0.794000000    -6.553000000
H     1.938000000     0.414000000    -5.948000000
O    -2.124000000     5.966000000    -3.883000000
H    -2.471000000     5.537000000    -3.101000000
H    -2.829000000     5.899000000    -4.527000000
O    -4.319000000    -0.218000000     1.472000000
H    -4.235000000     0.391000000     0.739000000
H    -3.870000000    -1.011000000     1.178000000
O    -1.821000000    -5.226000000    -2.704000000
H    -1.794000000    -5.686000000    -3.543000000
H    -1.150000000    -5.656000000    -2.173000000
O     1.627000000    -5.130000000    -1.460000000
H     1.192000000    -5.982000000    -1.427000000
H     1.956000000    -4.994000000    -0.572000000
O     2.321000000     3.452000000     3.473000000
H     2.596000000     3.104000000     2.624000000
H     1.367000000     3.505000000     3.412000000
O    -2.814000000     0.838000000     6.478000000
H    -2.523000000     1.291000000     5.686000000
H    -3.603000000     0.368000000     6.208000000
O     3.540000000     2.731000000     1.090000000
H     4.367000000     2.632000000     1.561000000
H     3.642000000     3.544000000     0.595000000
O    -4.445000000     1.083000000    -0.735000000
H    -4.389000000     1.938000000    -0.309000000
H    -3.863000000     1.154000000    -1.491000000
O     1.614000000    -2.808000000    -3.090000000
H     1.705000000    -3.653000000    -2.650000000
H     0.679000000    -2.609000000    -3.036000000
O     0.534000000     6.276000000     1.467000000
H     0.243000000     5.366000000     1.407000000
H     0.130000000     6.707000000     0.713000000
O    -1.014000000     7.646000000    -0.583000000
H    -1.214000000     7.148000000    -1.376000000
H    -1.821000000     7.614000000    -0.070000000
O     2.044000000     0.994000000     6.170000000
H     2.607000000     1.643000000     5.746000000
H     2.631000000     0.515000000     6.755000000
O    -4.735000000     3.219000000     4.063000000
H    -5.385000000     2.555000000     3.831000000
H    -3.960000000     2.717000000     4.315000000
O    -2.033000000     2.592000000     4.524000000
H    -2.064000000     3.472000000     4.899000000
H    -1.419000000     2.664000000     3.794000000
O     3.481000000    -0.808000000    -3.088000000
H     2.880000000    -1.539000000    -3.233000000
H     3.649000000    -0.458000000    -3.963000000
O     0.697000000     1.933000000    -4.699000000
H     0.502000000     2.761000000    -5.138000000
H     1.574000000     2.056000000    -4.335000000
O     2.495000000     6.997000000     3.306000000
H     1.997000000     6.783000000     2.518000000
H     2.052000000     6.519000000     4.007000000
O     3.016000000    -4.047000000     1.253000000
H     2.098000000    -3.838000000     1.427000000
H     3.486000000    -3.235000000     1.440000000
O     0.543000000    -4.119000000     2.251000000
H     0.509000000    -5.075000000     2.280000000
H    -0.275000000    -3.838000000     2.660000000
O     0.248000000     4.557000000    -4.578000000
H     0.568000000     4.488000000    -3.678000000
H    -0.544000000     5.091000000    -4.509000000
O     3.643000000     4.985000000    -0.298000000
H     3.444000000     5.857000000     0.044000000
H     4.327000000     5.134000000    -0.951000000
O    -2.030000000     0.117000000    -7.170000000
H    -1.100000000     0.337000000    -7.237000000
H    -2.314000000     0.524000000    -6.352000000
O    -3.090000000    -4.698000000     0.866000000
H    -2.885000000    -4.691000000     1.801000000
H    -2.763000000    -5.542000000     0.556000000
O    -2.048000000    -4.115000000     3.772000000
H    -2.752000000    -4.388000000     4.360000000
H    -2.061000000    -3.159000000     3.811000000
O     2.464000000     1.658000000    -2.371000000
H     2.318000000     0.724000000    -2.520000000
H     1.675000000     1.954000000    -1.916000000
O     4.843000000    -3.684000000    -1.439000000
H     4.581000000    -3.858000000    -0.535000000
H     4.460000000    -2.830000000    -1.639000000
O    -2.198000000     5.447000000     2.764000000
H    -1.483000000     5.337000000     3.391000000
H    -2.124000000     4.690000000     2.183000000
O     2.566000000    -2.744000000     4.408000000
H     2.302000000    -2.817000000     5.326000000
H     2.188000000    -3.517000000     3.988000000
O    -0.389000000    -7.533000000    -1.535000000
H    -0.795000000    -7.787000000    -2.364000000
H    -1.066000000    -7.695000000    -0.878000000
O     4.610000000    -1.731000000     1.732000000
H     3.867000000    -1.238000000     1.382000000
H     5.372000000    -1.186000000     1.535000000
O    -0.656000000     5.353000000     5.247000000
H     0.242000000     5.678000000     5.312000000
H    -1.200000000     6.110000000     5.465000000
O    -2.113000000    -1.403000000     3.452000000
H    -1.358000000    -1.076000000     3.942000000
H    -1.788000000    -1.512000000     2.558000000
O    -2.837000000    -2.079000000     0.540000000
H    -2.552000000    -1.981000000    -0.368000000
H    -3.079000000    -3.002000000     0.617000000
O    -2.513000000     8.132000000     2.113000000
H    -2.855000000     7.964000000     1.235000000
H    -2.333000000     7.263000000     2.471000000
O     4.376000000    -6.782000000    -2.320000000
H     3.646000000    -7.279000000    -1.951000000
H     4.111000000    -5.866000000    -2.231000000
