158
-3046.63353
C    -0.364000000     0.689000000    -1.272000000
H    -0.682000000     1.104000000    -2.225000000
C    -0.047000000    -0.662000000    -1.216000000
H     0.000000000    -1.318000000    -2.080000000
C     0.210000000    -1.162000000     0.116000000
H     0.372000000    -2.312000000     0.229000000
C     0.341000000    -0.381000000     1.183000000
H     0.663000000    -0.793000000     2.136000000
C     0.157000000     0.998000000     1.055000000
H     0.358000000     1.620000000     1.923000000
C    -0.270000000     1.514000000    -0.157000000
C    -0.582000000     2.986000000    -0.292000000
O    -0.455000000     3.625000000    -1.307000000
O    -1.196000000     3.519000000     0.638000000
O     2.142000000     3.388000000    -1.989000000
H     2.553000000     4.021000000    -2.578000000
H     1.218000000     3.637000000    -1.977000000
O    -2.832000000     0.993000000    -5.006000000
H    -2.488000000     1.348000000    -4.186000000
H    -3.190000000     1.752000000    -5.465000000
O    -1.349000000     3.322000000     5.654000000
H    -1.546000000     3.473000000     4.730000000
H    -0.581000000     2.751000000     5.646000000
O     3.173000000     2.544000000     0.481000000
H     3.039000000     2.677000000    -0.458000000
H     2.619000000     3.204000000     0.898000000
O    -4.618000000     1.408000000    -0.210000000
H    -3.995000000     1.964000000    -0.678000000
H    -5.431000000     1.913000000    -0.203000000
O    -4.365000000    -2.976000000     4.308000000
H    -4.578000000    -2.046000000     4.223000000
H    -3.493000000    -3.058000000     3.923000000
O     3.362000000    -0.518000000    -0.785000000
H     2.445000000    -0.529000000    -0.512000000
H     3.781000000     0.107000000    -0.193000000
O     2.081000000    -0.533000000    -6.417000000
H     2.503000000    -0.114000000    -5.667000000
H     1.174000000    -0.663000000    -6.139000000
O    -2.018000000    -2.023000000     2.716000000
H    -1.912000000    -1.271000000     3.299000000
H    -2.481000000    -1.672000000     1.954000000
O    -3.926000000     5.022000000    -1.647000000
H    -3.797000000     5.845000000    -1.175000000
H    -4.598000000     5.223000000    -2.299000000
O    -5.383000000     1.164000000     2.470000000
H    -5.135000000     1.309000000     1.557000000
H    -4.819000000     1.756000000     2.968000000
O     1.313000000     4.688000000    -5.695000000
H     0.835000000     4.652000000    -4.866000000
H     1.783000000     5.521000000    -5.663000000
O    -1.395000000    -2.679000000    -4.018000000
H    -1.240000000    -3.511000000    -4.467000000
H    -1.858000000    -2.922000000    -3.217000000
O     3.016000000     5.815000000     3.081000000
H     2.467000000     5.326000000     2.468000000
H     3.676000000     6.234000000     2.529000000
O    -4.969000000    -0.096000000    -3.041000000
H    -4.753000000     0.338000000    -2.216000000
H    -5.472000000    -0.868000000    -2.781000000
O     1.181000000     4.562000000     1.553000000
H     0.404000000     4.140000000     1.922000000
H     0.847000000     5.088000000     0.827000000
O    -2.917000000     2.728000000    -2.570000000
H    -2.036000000     2.828000000    -2.210000000
H    -3.358000000     3.550000000    -2.356000000
O     1.242000000    -1.209000000     5.409000000
H     1.606000000    -2.038000000     5.720000000
H     1.850000000    -0.544000000     5.733000000
O     1.064000000     2.484000000     4.805000000
H     1.530000000     2.047000000     4.094000000
H     1.480000000     3.344000000     4.872000000
O     5.352000000    -4.508000000     2.515000000
H     5.659000000    -4.454000000     1.610000000
H     4.636000000    -3.875000000     2.563000000
O    -4.809000000     4.181000000     4.024000000
H    -4.142000000     4.089000000     3.344000000
H    -4.314000000     4.217000000     4.842000000
O    -1.884000000     2.679000000     3.041000000
H    -1.816000000     3.008000000     2.145000000
H    -1.438000000     1.832000000     3.019000000
O    -2.909000000     6.459000000     2.671000000
H    -3.246000000     7.180000000     2.139000000
H    -3.513000000     5.736000000     2.505000000
O     0.146000000     1.650000000    -4.756000000
H     0.949000000     1.436000000    -4.281000000
H    -0.113000000     0.828000000    -5.172000000
O     3.503000000    -1.694000000    -3.167000000
H     3.721000000    -1.355000000    -2.298000000
H     2.899000000    -2.417000000    -2.998000000
O     3.169000000    -3.199000000     1.640000000
H     2.608000000    -3.685000000     2.245000000
H     3.223000000    -3.754000000     0.863000000
O     0.700000000    -3.569000000     3.126000000
H     0.816000000    -3.379000000     4.057000000
H    -0.128000000    -3.147000000     2.897000000
O     0.366000000     5.664000000    -2.995000000
H     0.770000000     6.357000000    -2.473000000
H     0.050000000     5.031000000    -2.350000000
O    -0.557000000     6.131000000    -0.505000000
H    -0.679000000     5.197000000    -0.674000000
H    -1.385000000     6.414000000    -0.116000000
O     1.197000000     7.853000000     1.380000000
H     0.964000000     8.778000000     1.459000000
H     0.832000000     7.586000000     0.536000000
O     0.566000000    -6.405000000     3.864000000
H     0.343000000    -5.507000000     3.618000000
H     1.512000000    -6.462000000     3.727000000
O    -0.674000000    -4.698000000    -0.529000000
H    -1.451000000    -4.204000000    -0.790000000
H    -0.435000000    -4.336000000     0.324000000
O    -2.595000000    -0.482000000     4.878000000
H    -3.432000000    -0.084000000     5.117000000
H    -1.987000000    -0.186000000     5.556000000
O    -0.486000000    -0.817000000    -5.837000000
H    -1.358000000    -0.730000000    -6.222000000
H    -0.609000000    -1.411000000    -5.096000000
O     1.536000000    -3.975000000    -2.850000000
H     0.595000000    -3.811000000    -2.900000000
H     1.611000000    -4.927000000    -2.781000000
O    -3.717000000     4.164000000     1.254000000
H    -2.850000000     3.980000000     0.893000000
H    -4.284000000     4.247000000     0.488000000
O    -0.920000000     0.231000000     6.781000000
H    -0.586000000     0.217000000     7.678000000
H    -0.219000000    -0.158000000     6.259000000
O     2.108000000    -6.674000000    -2.595000000
H     1.705000000    -7.403000000    -3.068000000
H     3.034000000    -6.718000000    -2.831000000
O    -3.464000000    -4.568000000     1.397000000
H    -2.907000000    -4.144000000     2.050000000
H    -3.157000000    -5.475000000     1.373000000
O     2.861000000     1.413000000     2.932000000
H     3.170000000     0.510000000     3.011000000
H     3.160000000     1.694000000     2.068000000
O     4.363000000    -0.899000000     2.497000000
H     3.687000000    -1.439000000     2.088000000
H     5.174000000    -1.158000000     2.058000000
O     3.207000000    -4.917000000    -0.773000000
H     2.560000000    -4.288000000    -1.092000000
H     2.967000000    -5.743000000    -1.194000000
O    -2.841000000    -0.770000000    -0.071000000
H    -1.963000000    -0.405000000    -0.181000000
H    -3.428000000    -0.026000000    -0.203000000
O    -2.689000000    -3.273000000    -1.605000000
H    -3.579000000    -3.591000000    -1.759000000
H    -2.808000000    -2.454000000    -1.124000000
O    -1.568000000     3.739000000    -4.928000000
H    -1.986000000     3.520000000    -4.095000000
H    -0.768000000     3.214000000    -4.939000000
O     2.671000000     0.877000000    -3.961000000
H     2.949000000     0.042000000    -3.583000000
H     3.031000000     1.539000000    -3.371000000
O    -1.702000000    -6.867000000    -2.012000000
H    -2.348000000    -7.152000000    -1.365000000
H    -1.287000000    -6.101000000    -1.615000000
O    -3.961000000    -1.710000000    -5.242000000
H    -3.880000000    -2.512000000    -4.726000000
H    -3.790000000    -1.005000000    -4.617000000
