158
-3034.58861
C    -0.744000000     0.305000000    -1.178000000
H    -1.230000000     0.459000000    -2.137000000
C    -0.576000000    -0.968000000    -0.667000000
H    -0.896000000    -1.869000000    -1.184000000
C     0.073000000    -1.088000000     0.550000000
H     0.216000000    -2.095000000     0.938000000
C     0.715000000    -0.006000000     1.101000000
H     1.238000000    -0.180000000     2.038000000
C     0.649000000     1.251000000     0.505000000
H     1.233000000     2.057000000     0.943000000
C    -0.053000000     1.414000000    -0.663000000
C    -0.284000000     2.817000000    -1.301000000
O    -0.871000000     2.865000000    -2.403000000
O    -0.099000000     3.804000000    -0.614000000
O     3.667000000    -1.700000000     3.699000000
H     4.513000000    -2.074000000     3.452000000
H     3.846000000    -0.769000000     3.828000000
O     2.349000000     7.348000000    -1.347000000
H     1.954000000     6.503000000    -1.133000000
H     1.635000000     7.978000000    -1.247000000
O     3.484000000    -5.066000000    -1.493000000
H     2.851000000    -4.729000000    -0.859000000
H     4.337000000    -4.892000000    -1.095000000
O     2.265000000     4.726000000    -0.123000000
H     1.397000000     4.324000000    -0.142000000
H     2.724000000     4.341000000    -0.870000000
O    -3.139000000    -2.683000000    -0.665000000
H    -3.232000000    -3.099000000    -1.522000000
H    -3.239000000    -1.747000000    -0.840000000
O    -2.941000000    -4.616000000    -2.855000000
H    -1.994000000    -4.479000000    -2.836000000
H    -3.045000000    -5.568000000    -2.847000000
O    -3.682000000    -2.306000000    -4.064000000
H    -4.034000000    -3.160000000    -3.813000000
H    -2.838000000    -2.504000000    -4.468000000
O     2.604000000    -0.613000000    -1.823000000
H     2.129000000    -0.605000000    -2.654000000
H     1.963000000    -0.921000000    -1.183000000
O    -2.386000000    -2.470000000     5.148000000
H    -2.206000000    -3.206000000     4.564000000
H    -3.248000000    -2.155000000     4.878000000
O     0.350000000    -1.114000000     5.699000000
H    -0.534000000    -1.457000000     5.834000000
H     0.214000000    -0.244000000     5.324000000
O    -5.130000000     0.052000000    -0.884000000
H    -4.686000000    -0.114000000    -0.053000000
H    -5.925000000     0.528000000    -0.641000000
O     3.176000000     3.293000000    -2.078000000
H     3.668000000     3.874000000    -2.659000000
H     3.842000000     2.730000000    -1.683000000
O    -2.503000000    -6.172000000    -0.268000000
H    -2.950000000    -5.511000000    -0.798000000
H    -3.209000000    -6.634000000     0.183000000
O    -3.955000000     5.902000000    -2.880000000
H    -3.923000000     5.047000000    -2.451000000
H    -4.843000000     6.219000000    -2.715000000
O    -0.072000000     8.615000000    -0.701000000
H    -0.527000000     7.783000000    -0.832000000
H    -0.737000000     9.281000000    -0.871000000
O     3.180000000    -6.358000000     2.329000000
H     3.948000000    -5.827000000     2.122000000
H     2.585000000    -6.217000000     1.592000000
O    -3.406000000    -3.651000000     1.946000000
H    -2.598000000    -3.506000000     2.440000000
H    -3.265000000    -3.195000000     1.117000000
O     5.516000000    -2.555000000    -1.730000000
H     6.041000000    -3.251000000    -1.334000000
H     4.827000000    -2.380000000    -1.090000000
O     3.588000000     4.259000000     2.027000000
H     3.205000000     4.392000000     1.160000000
H     4.531000000     4.347000000     1.889000000
O    -2.875000000     6.372000000     2.740000000
H    -2.570000000     5.841000000     2.004000000
H    -3.477000000     5.799000000     3.215000000
O    -3.368000000    -0.394000000     1.373000000
H    -2.474000000    -0.215000000     1.665000000
H    -3.740000000    -0.943000000     2.063000000
O    -1.242000000     3.962000000     3.873000000
H    -2.037000000     3.445000000     3.998000000
H    -1.108000000     3.970000000     2.925000000
O    -1.224000000    -4.274000000     3.565000000
H    -1.199000000    -5.166000000     3.912000000
H    -0.340000000    -4.122000000     3.230000000
O    -1.167000000     4.905000000    -4.120000000
H    -0.720000000     4.187000000    -3.672000000
H    -1.578000000     5.407000000    -3.416000000
O     1.807000000    -5.256000000     5.258000000
H     2.043000000    -4.455000000     5.725000000
H     1.892000000    -5.949000000     5.913000000
O     1.471000000     6.344000000     2.485000000
H     2.369000000     6.020000000     2.550000000
H     0.967000000     5.591000000     2.175000000
O    -4.065000000     0.243000000    -3.470000000
H    -3.562000000    -0.513000000    -3.775000000
H    -4.740000000    -0.131000000    -2.904000000
O    -3.513000000     2.168000000     0.512000000
H    -3.599000000     2.034000000    -0.432000000
H    -3.423000000     1.285000000     0.871000000
O    -0.374000000     1.210000000     4.490000000
H    -1.246000000     1.591000000     4.596000000
H    -0.126000000     1.427000000     3.591000000
O     1.767000000    -3.687000000     2.942000000
H     2.294000000    -2.904000000     3.101000000
H     1.974000000    -4.269000000     3.673000000
O     1.049000000     2.367000000    -4.156000000
H     0.164000000     2.397000000    -3.793000000
H     1.623000000     2.410000000    -3.391000000
O    -1.738000000     3.941000000     1.342000000
H    -2.432000000     3.361000000     1.030000000
H    -1.058000000     3.884000000     0.670000000
O     0.015000000    -6.807000000    -0.011000000
H    -0.925000000    -6.633000000    -0.060000000
H     0.082000000    -7.762000000    -0.006000000
O    -0.596000000    -2.170000000    -4.434000000
H     0.015000000    -1.485000000    -4.704000000
H    -0.276000000    -2.452000000    -3.577000000
O     2.167000000     2.794000000     3.701000000
H     1.628000000     3.434000000     4.166000000
H     2.711000000     3.320000000     3.115000000
O     2.879000000    -2.795000000     6.127000000
H     3.769000000    -2.841000000     6.476000000
H     2.959000000    -2.261000000     5.337000000
O     4.286000000     1.001000000     3.263000000
H     5.124000000     1.288000000     2.900000000
H     3.732000000     1.781000000     3.232000000
O     2.236000000     1.357000000     6.091000000
H     1.533000000     0.739000000     6.292000000
H     1.872000000     1.919000000     5.407000000
O    -2.607000000     4.229000000    -6.375000000
H    -2.051000000     3.588000000    -6.817000000
H    -2.077000000     4.541000000    -5.642000000
O     0.818000000    -3.346000000    -2.440000000
H     0.831000000    -3.480000000    -1.492000000
H     1.062000000    -4.196000000    -2.805000000
O    -1.031000000     6.099000000    -1.521000000
H    -1.961000000     5.929000000    -1.669000000
H    -0.666000000     5.246000000    -1.287000000
O    -4.714000000     1.771000000    -5.916000000
H    -4.252000000     1.672000000    -5.084000000
H    -4.125000000     1.388000000    -6.565000000
O     5.250000000     1.596000000    -0.368000000
H     5.119000000     1.368000000     0.552000000
H     4.928000000     0.835000000    -0.852000000
O     0.676000000     6.264000000    -5.784000000
H     1.511000000     6.067000000    -5.359000000
H     0.045000000     5.690000000    -5.350000000
O     4.096000000    -2.038000000     0.852000000
H     4.449000000    -1.546000000     1.594000000
H     3.919000000    -2.910000000     1.205000000
O     2.633000000     4.893000000    -4.583000000
H     3.523000000     4.549000000    -4.509000000
H     2.070000000     4.125000000    -4.482000000
O    -3.655000000     2.697000000    -2.369000000
H    -2.700000000     2.700000000    -2.438000000
H    -3.919000000     1.853000000    -2.735000000
O     1.419000000    -4.381000000     0.238000000
H     1.620000000    -4.126000000     1.138000000
H     1.046000000    -5.260000000     0.316000000
