158
-3029.82774
C     0.339000000     0.235000000    -1.397000000
H     0.601000000     0.295000000    -2.450000000
C    -0.445000000    -0.821000000    -0.965000000
H    -0.897000000    -1.603000000    -1.570000000
C    -0.689000000    -0.893000000     0.399000000
H    -1.241000000    -1.770000000     0.681000000
C    -0.156000000     0.007000000     1.316000000
H    -0.431000000    -0.073000000     2.365000000
C     0.668000000     1.013000000     0.866000000
H     1.138000000     1.710000000     1.556000000
C     0.875000000     1.197000000    -0.514000000
C     1.822000000     2.262000000    -1.003000000
O     2.117000000     2.328000000    -2.188000000
O     2.403000000     2.992000000    -0.261000000
O     6.123000000     5.974000000    -3.726000000
H     6.763000000     5.756000000    -3.048000000
H     5.601000000     5.179000000    -3.827000000
O     1.760000000     4.358000000    -6.166000000
H     1.039000000     4.768000000    -6.643000000
H     2.519000000     4.468000000    -6.738000000
O    -3.681000000    -0.546000000    -4.302000000
H    -4.213000000    -1.339000000    -4.360000000
H    -2.795000000    -0.864000000    -4.128000000
O     2.881000000     2.352000000     5.153000000
H     3.002000000     2.195000000     4.217000000
H     2.319000000     3.127000000     5.196000000
O     1.541000000     7.821000000    -1.344000000
H     2.497000000     7.799000000    -1.386000000
H     1.294000000     6.938000000    -1.070000000
O     5.886000000    -1.029000000    -3.236000000
H     5.085000000    -0.525000000    -3.093000000
H     6.298000000    -0.615000000    -3.994000000
O     4.060000000     3.860000000    -3.023000000
H     3.269000000     3.404000000    -2.737000000
H     4.645000000     3.162000000    -3.318000000
O     0.327000000    -6.519000000     1.849000000
H     0.584000000    -6.959000000     2.660000000
H     1.093000000    -6.597000000     1.281000000
O    -1.577000000     0.313000000     5.623000000
H    -1.360000000     1.190000000     5.304000000
H    -1.866000000     0.451000000     6.525000000
O    -0.806000000     4.499000000    -3.221000000
H    -1.698000000     4.480000000    -3.569000000
H    -0.335000000     3.843000000    -3.735000000
O     1.143000000    -0.407000000    -5.962000000
H     2.050000000    -0.567000000    -6.219000000
H     1.117000000     0.524000000    -5.740000000
O    -6.586000000    -0.847000000     2.313000000
H    -5.782000000    -1.361000000     2.395000000
H    -6.284000000     0.049000000     2.167000000
O     4.583000000     6.550000000     1.149000000
H     3.985000000     6.469000000     1.893000000
H     5.323000000     7.051000000     1.490000000
O     6.894000000     3.185000000    -1.089000000
H     7.497000000     2.557000000    -0.691000000
H     6.841000000     2.919000000    -2.007000000
O     0.153000000     7.197000000    -4.103000000
H    -0.123000000     6.299000000    -3.920000000
H     1.010000000     7.274000000    -3.682000000
O    -0.398000000    -3.575000000     3.451000000
H    -0.878000000    -4.236000000     3.950000000
H    -0.694000000    -3.693000000     2.549000000
O     6.393000000     2.478000000    -4.028000000
H     6.531000000     1.551000000    -3.831000000
H     7.035000000     2.675000000    -4.710000000
O    -5.826000000    -5.582000000    -1.406000000
H    -5.920000000    -5.013000000    -2.170000000
H    -5.095000000    -5.206000000    -0.916000000
O     3.891000000     2.072000000     1.760000000
H     3.334000000     2.307000000     1.017000000
H     4.696000000     2.572000000     1.622000000
O    -4.075000000     0.040000000     4.704000000
H    -4.207000000     0.794000000     4.129000000
H    -3.143000000     0.066000000     4.922000000
O    -1.787000000     2.957000000     4.687000000
H    -2.568000000     3.442000000     4.419000000
H    -1.677000000     3.175000000     5.613000000
O    -1.988000000    -5.373000000     4.985000000
H    -2.778000000    -5.550000000     4.475000000
H    -2.286000000    -4.814000000     5.702000000
O    -4.145000000    -3.845000000     0.918000000
H    -4.508000000    -3.208000000     0.303000000
H    -3.198000000    -3.791000000     0.789000000
O     0.919000000     4.491000000     1.527000000
H     1.524000000     4.054000000     0.928000000
H     0.781000000     5.355000000     1.141000000
O     4.319000000     1.838000000    -6.023000000
H     4.944000000     2.207000000    -5.400000000
H     3.705000000     1.343000000    -5.481000000
O     3.769000000    -4.395000000     1.232000000
H     3.636000000    -3.524000000     0.857000000
H     3.463000000    -4.997000000     0.553000000
O    -0.871000000    -1.628000000    -4.504000000
H    -0.161000000    -0.999000000    -4.638000000
H    -0.813000000    -2.218000000    -5.255000000
O    -2.530000000     1.404000000     0.210000000
H    -3.425000000     1.065000000     0.180000000
H    -1.977000000     0.625000000     0.161000000
O     7.053000000     2.268000000     2.581000000
H     6.467000000     2.861000000     2.112000000
H     6.873000000     1.406000000     2.205000000
O    -1.760000000     3.948000000     0.908000000
H    -0.817000000     4.115000000     0.898000000
H    -1.834000000     2.994000000     0.893000000
O    -0.247000000    -4.192000000    -2.013000000
H     0.352000000    -4.842000000    -2.379000000
H    -0.661000000    -3.791000000    -2.778000000
O     3.655000000     0.252000000    -2.800000000
H     3.230000000     1.006000000    -2.389000000
H     3.029000000    -0.464000000    -2.692000000
O    -3.822000000    -6.169000000     3.226000000
H    -4.135000000    -5.492000000     2.626000000
H    -4.596000000    -6.701000000     3.412000000
O     2.253000000    -3.394000000     3.901000000
H     1.330000000    -3.542000000     3.694000000
H     2.679000000    -3.311000000     3.048000000
O     0.519000000     4.074000000     4.335000000
H    -0.367000000     3.721000000     4.416000000
H     0.674000000     4.118000000     3.391000000
O    -4.600000000    -2.373000000     3.624000000
H    -4.047000000    -2.736000000     2.932000000
H    -4.013000000    -1.812000000     4.130000000
O     3.868000000    -0.539000000     2.628000000
H     3.553000000    -0.641000000     3.526000000
H     4.074000000     0.393000000     2.550000000
O     2.273000000    -1.843000000     0.619000000
H     2.770000000    -1.420000000     1.319000000
H     1.378000000    -1.523000000     0.734000000
O    -1.174000000    -4.325000000     0.717000000
H    -0.864000000    -4.499000000    -0.172000000
H    -1.104000000    -5.168000000     1.164000000
O    -0.491000000    -2.152000000     5.811000000
H    -0.265000000    -2.615000000     5.004000000
H    -0.616000000    -1.243000000     5.538000000
O     0.935000000     5.160000000    -1.164000000
H     1.634000000     4.517000000    -1.280000000
H     0.241000000     4.868000000    -1.756000000
O     2.132000000    -2.962000000    -2.067000000
H     1.210000000    -3.220000000    -2.077000000
H     2.262000000    -2.576000000    -1.201000000
O     5.706000000     4.040000000     1.104000000
H     5.946000000     3.799000000     0.209000000
H     5.218000000     4.858000000     1.008000000
O    -5.913000000    -1.902000000    -1.075000000
H    -6.485000000    -1.750000000    -0.323000000
H    -6.105000000    -1.181000000    -1.673000000
O    -4.063000000    -0.912000000     0.919000000
H    -3.997000000    -0.075000000     1.379000000
H    -4.764000000    -0.779000000     0.280000000
O     4.242000000     6.855000000    -1.482000000
H     4.240000000     6.642000000    -0.549000000
H     4.439000000     6.025000000    -1.917000000
O     1.153000000     2.041000000    -4.676000000
H     1.346000000     2.133000000    -3.743000000
H     1.532000000     2.824000000    -5.077000000
O    -3.930000000     3.769000000    -1.071000000
H    -3.097000000     3.645000000    -0.614000000
H    -3.789000000     3.380000000    -1.934000000
