158
-3044.85770
C     0.341000000    -0.160000000    -1.495000000
H     0.602000000    -0.395000000    -2.524000000
C    -0.545000000    -0.953000000    -0.797000000
H    -0.969000000    -1.848000000    -1.244000000
C    -0.807000000    -0.698000000     0.593000000
H    -1.472000000    -1.481000000     1.048000000
C    -0.200000000     0.417000000     1.187000000
H    -0.325000000     0.494000000     2.264000000
C     0.591000000     1.293000000     0.444000000
H     1.113000000     2.112000000     0.932000000
C     0.917000000     0.954000000    -0.882000000
C     1.991000000     1.771000000    -1.522000000
O     2.105000000     1.654000000    -2.743000000
O     2.701000000     2.550000000    -0.909000000
O     2.121000000     6.148000000     4.098000000
H     1.243000000     6.225000000     4.472000000
H     1.986000000     5.701000000     3.262000000
O    -2.509000000     1.312000000    -2.284000000
H    -2.875000000     0.853000000    -3.040000000
H    -2.356000000     2.203000000    -2.596000000
O     0.742000000    -4.520000000    -0.074000000
H     1.093000000    -3.742000000     0.359000000
H     1.267000000    -4.608000000    -0.870000000
O     1.432000000     4.833000000    -1.373000000
H     2.140000000     5.367000000    -1.013000000
H     1.874000000     4.077000000    -1.758000000
O    -4.741000000     0.310000000     6.700000000
H    -4.311000000    -0.180000000     5.999000000
H    -5.573000000    -0.145000000     6.834000000
O     4.155000000     0.772000000    -6.685000000
H     3.351000000     0.796000000    -6.166000000
H     4.614000000    -0.010000000    -6.378000000
O     4.955000000     4.215000000    -1.248000000
H     4.236000000     3.587000000    -1.324000000
H     5.148000000     4.246000000    -0.311000000
O     4.754000000     1.546000000    -3.142000000
H     4.025000000     1.725000000    -2.549000000
H     4.518000000     1.995000000    -3.954000000
O    -3.772000000     2.353000000     3.199000000
H    -4.162000000     1.576000000     3.600000000
H    -3.339000000     2.024000000     2.411000000
O    -0.913000000    -3.041000000     5.670000000
H    -1.218000000    -3.948000000     5.694000000
H    -0.355000000    -2.996000000     4.893000000
O     0.626000000     5.155000000     1.679000000
H     0.500000000     5.633000000     0.859000000
H    -0.249000000     4.846000000     1.913000000
O    -0.749000000     6.106000000    -0.716000000
H     0.025000000     5.582000000    -0.925000000
H    -0.508000000     6.998000000    -0.966000000
O     1.291000000     1.611000000    -7.614000000
H     0.381000000     1.902000000    -7.676000000
H     1.402000000     1.368000000    -6.695000000
O     1.838000000    -5.247000000     4.764000000
H     2.124000000    -4.889000000     5.605000000
H     1.458000000    -4.500000000     4.303000000
O     5.315000000     5.562000000    -3.589000000
H     4.486000000     6.040000000    -3.564000000
H     5.307000000     5.025000000    -2.796000000
O     2.247000000     0.002000000     4.582000000
H     2.517000000     0.920000000     4.583000000
H     3.003000000    -0.471000000     4.932000000
O    -3.729000000    -3.720000000     1.387000000
H    -3.921000000    -3.132000000     0.655000000
H    -3.856000000    -3.180000000     2.167000000
O     6.377000000    -0.526000000    -3.357000000
H     5.745000000     0.193000000    -3.362000000
H     5.983000000    -1.188000000    -2.788000000
O    -3.276000000    -0.787000000    -3.854000000
H    -2.365000000    -0.843000000    -4.141000000
H    -3.449000000    -1.633000000    -3.440000000
O     4.420000000     0.588000000     2.125000000
H     3.537000000     0.308000000     2.365000000
H     4.408000000     0.621000000     1.168000000
O     3.589000000     6.495000000    -0.742000000
H     4.396000000     5.981000000    -0.765000000
H     3.488000000     6.822000000    -1.635000000
O    -2.841000000     1.732000000     0.339000000
H    -3.070000000     1.803000000    -0.588000000
H    -2.027000000     1.229000000     0.346000000
O    -1.571000000    -5.427000000     1.250000000
H    -0.858000000    -5.108000000     0.697000000
H    -2.157000000    -4.676000000     1.343000000
O    -4.996000000    -2.262000000     3.757000000
H    -4.132000000    -1.988000000     4.064000000
H    -5.491000000    -1.447000000     3.674000000
O    -4.112000000    -1.766000000    -0.424000000
H    -4.997000000    -1.403000000    -0.383000000
H    -3.625000000    -1.149000000    -0.970000000
O    -0.472000000    -0.814000000    -5.259000000
H    -0.119000000    -1.696000000    -5.379000000
H    -1.061000000    -0.689000000    -6.003000000
O     2.059000000    -4.649000000    -2.764000000
H     1.567000000    -5.441000000    -2.980000000
H     2.454000000    -4.378000000    -3.593000000
O    -6.192000000    -0.110000000    -0.641000000
H    -6.761000000     0.300000000    -1.293000000
H    -5.692000000     0.617000000    -0.269000000
O    -0.488000000     1.059000000     5.600000000
H    -0.590000000     0.431000000     6.315000000
H     0.148000000     0.652000000     5.012000000
O     5.333000000     5.357000000     1.268000000
H     4.766000000     4.945000000     1.919000000
H     6.211000000     5.039000000     1.479000000
O    -2.905000000    -1.371000000     5.178000000
H    -2.650000000    -2.253000000     5.449000000
H    -2.095000000    -0.863000000     5.219000000
O    -0.999000000    -4.614000000    -3.916000000
H    -0.717000000    -5.233000000    -3.243000000
H    -1.362000000    -5.164000000    -4.611000000
O     1.772000000     0.378000000    -4.959000000
H     1.902000000     0.828000000    -4.124000000
H     0.864000000     0.076000000    -4.930000000
O     1.821000000    -2.097000000     0.982000000
H     2.607000000    -1.760000000     0.553000000
H     1.196000000    -1.372000000     0.939000000
O    -2.062000000     4.301000000     1.034000000
H    -2.374000000     3.428000000     0.797000000
H    -1.974000000     4.759000000     0.198000000
O     0.896000000     3.241000000     4.208000000
H     0.398000000     2.550000000     4.645000000
H     0.392000000     4.038000000     4.368000000
O     1.277000000    -2.783000000     3.672000000
H     1.148000000    -2.685000000     2.729000000
H     1.769000000    -2.003000000     3.928000000
O     3.857000000    -1.225000000    -0.247000000
H     4.705000000    -1.655000000    -0.137000000
H     3.618000000    -1.399000000    -1.158000000
O     3.825000000     2.589000000     4.327000000
H     4.009000000     1.893000000     3.697000000
H     3.065000000     3.045000000     3.965000000
O    -3.892000000    -3.436000000    -3.031000000
H    -4.026000000    -3.723000000    -2.128000000
H    -3.390000000    -4.143000000    -3.436000000
O    -5.600000000     0.435000000     3.916000000
H    -6.269000000     0.279000000     3.249000000
H    -6.065000000     0.890000000     4.619000000
O    -1.032000000     3.483000000    -6.067000000
H    -0.118000000     3.340000000    -5.823000000
H    -1.024000000     4.306000000    -6.556000000
O     2.967000000     3.880000000     1.603000000
H     2.134000000     4.343000000     1.694000000
H     2.970000000     3.567000000     0.698000000
O     3.344000000    -1.729000000    -3.086000000
H     3.144000000    -2.500000000    -3.617000000
H     3.225000000    -0.990000000    -3.684000000
O    -7.607000000    -2.751000000    -0.876000000
H    -6.698000000    -2.491000000    -0.729000000
H    -8.053000000    -1.940000000    -1.120000000
O     4.591000000     3.342000000    -5.216000000
H     5.022000000     4.059000000    -4.752000000
H     4.663000000     3.578000000    -6.141000000
O     0.348000000    -3.310000000    -5.893000000
H    -0.061000000    -3.579000000    -5.070000000
H     1.256000000    -3.603000000    -5.816000000
O     1.894000000     3.608000000    -4.583000000
H     2.790000000     3.723000000    -4.898000000
H     1.992000000     3.348000000    -3.668000000
