158
-3034.41460
C    -0.116000000    -0.855000000    -1.169000000
H    -0.333000000    -1.462000000    -2.044000000
C    -0.697000000    -1.186000000     0.028000000
H    -1.377000000    -2.027000000     0.131000000
C    -0.428000000    -0.320000000     1.131000000
H    -0.898000000    -0.757000000     1.990000000
C     0.349000000     0.794000000     0.974000000
H     0.534000000     1.511000000     1.770000000
C     0.877000000     1.164000000    -0.278000000
H     1.450000000     2.086000000    -0.331000000
C     0.674000000     0.320000000    -1.393000000
C     1.249000000     0.643000000    -2.774000000
O     0.922000000    -0.004000000    -3.737000000
O     1.981000000     1.644000000    -2.831000000
O    -1.417000000    -0.771000000    -4.524000000
H    -1.266000000    -1.715000000    -4.478000000
H    -0.616000000    -0.383000000    -4.171000000
O    -0.867000000     3.875000000    -2.102000000
H    -0.290000000     4.562000000    -2.434000000
H    -1.274000000     3.504000000    -2.885000000
O     2.063000000    -5.264000000     2.683000000
H     2.147000000    -5.625000000     1.801000000
H     1.837000000    -4.344000000     2.545000000
O     4.174000000     4.237000000    -5.683000000
H     3.563000000     3.788000000    -6.268000000
H     4.808000000     3.563000000    -5.436000000
O     2.652000000     4.019000000    -1.769000000
H     2.246000000     4.241000000    -2.607000000
H     2.645000000     3.062000000    -1.745000000
O     3.646000000     0.825000000    -4.828000000
H     2.993000000     1.080000000    -4.176000000
H     3.432000000     1.351000000    -5.599000000
O    -3.627000000    -3.273000000    -0.952000000
H    -4.474000000    -3.315000000    -1.395000000
H    -3.610000000    -2.405000000    -0.549000000
O    -1.083000000     0.561000000     4.694000000
H    -0.155000000     0.470000000     4.476000000
H    -1.155000000     0.220000000     5.585000000
O    -2.453000000     3.472000000     1.722000000
H    -3.234000000     4.025000000     1.724000000
H    -2.787000000     2.588000000     1.567000000
O    -5.194000000     2.801000000     3.827000000
H    -5.323000000     2.749000000     4.774000000
H    -5.981000000     2.402000000     3.456000000
O     1.630000000    -4.277000000    -1.385000000
H     1.359000000    -5.189000000    -1.277000000
H     1.528000000    -3.893000000    -0.514000000
O    -0.687000000    -1.562000000    -7.351000000
H    -0.665000000    -0.621000000    -7.176000000
H    -1.396000000    -1.891000000    -6.798000000
O    -0.624000000    -3.245000000     5.502000000
H    -1.002000000    -2.393000000     5.719000000
H     0.313000000    -3.074000000     5.406000000
O     1.080000000     3.175000000    -5.208000000
H     1.284000000     2.581000000    -4.486000000
H     1.402000000     4.027000000    -4.915000000
O    -2.452000000    -5.180000000     0.475000000
H    -2.006000000    -4.642000000     1.130000000
H    -3.072000000    -4.582000000     0.057000000
O    -4.327000000    -2.459000000     1.740000000
H    -3.947000000    -1.613000000     1.501000000
H    -5.159000000    -2.489000000     1.269000000
O    -3.439000000     0.007000000    -2.898000000
H    -2.649000000    -0.414000000    -3.237000000
H    -3.127000000     0.568000000    -2.189000000
O     4.501000000     1.886000000     2.730000000
H     4.167000000     2.775000000     2.847000000
H     4.258000000     1.430000000     3.535000000
O     4.168000000    -4.055000000    -2.499000000
H     4.364000000    -4.741000000    -3.136000000
H     3.254000000    -4.206000000    -2.258000000
O    -2.223000000    -4.042000000    -5.891000000
H    -2.420000000    -4.936000000    -6.169000000
H    -1.835000000    -4.140000000    -5.022000000
O     4.224000000    -1.088000000     3.770000000
H     4.254000000    -0.275000000     3.266000000
H     4.241000000    -1.780000000     3.109000000
O     0.957000000     5.600000000    -3.327000000
H     0.609000000     6.409000000    -3.702000000
H     1.717000000     5.881000000    -2.816000000
O    -1.521000000    -1.115000000     7.536000000
H    -0.911000000    -1.235000000     8.264000000
H    -2.150000000    -1.830000000     7.629000000
O    -2.246000000     1.522000000    -1.046000000
H    -1.945000000     2.427000000    -1.120000000
H    -1.559000000     1.080000000    -0.547000000
O    -1.487000000    -4.401000000    -3.105000000
H    -0.705000000    -4.518000000    -2.565000000
H    -2.188000000    -4.229000000    -2.477000000
O    -4.102000000    -0.031000000     0.320000000
H    -3.546000000     0.564000000    -0.184000000
H    -4.981000000     0.108000000    -0.030000000
O    -5.257000000    -1.854000000     5.762000000
H    -4.769000000    -1.466000000     5.035000000
H    -4.582000000    -2.143000000     6.376000000
O     2.413000000    -2.086000000    -4.876000000
H     3.097000000    -1.454000000    -4.654000000
H     1.638000000    -1.775000000    -4.408000000
O     1.182000000     6.082000000     3.629000000
H     2.034000000     6.478000000     3.445000000
H     1.385000000     5.176000000     3.862000000
O     6.119000000     2.336000000    -4.748000000
H     5.415000000     1.688000000    -4.734000000
H     6.478000000     2.320000000    -3.861000000
O     6.541000000     2.097000000     0.507000000
H     7.059000000     1.525000000     1.074000000
H     5.667000000     2.093000000     0.897000000
O     2.297000000    -2.223000000     5.652000000
H     2.891000000    -1.795000000     5.035000000
H     2.569000000    -1.897000000     6.510000000
O    -3.813000000     0.018000000     4.318000000
H    -2.908000000     0.061000000     4.009000000
H    -4.158000000     0.899000000     4.170000000
O    -0.287000000    -6.434000000    -0.731000000
H    -1.134000000    -6.021000000    -0.567000000
H    -0.142000000    -6.995000000     0.031000000
O     2.964000000    -1.182000000    -7.506000000
H     2.529000000    -1.521000000    -6.723000000
H     2.368000000    -0.510000000    -7.839000000
O     4.482000000    -1.508000000     0.805000000
H     4.471000000    -0.766000000     0.201000000
H     4.411000000    -2.278000000     0.239000000
O    -0.124000000     5.023000000     0.956000000
H    -0.584000000     4.235000000     0.666000000
H    -0.004000000     4.897000000     1.897000000
O     5.284000000     4.943000000    -1.910000000
H     5.870000000     4.314000000    -2.329000000
H     4.409000000     4.688000000    -2.203000000
O     0.889000000    -3.017000000     1.629000000
H     0.065000000    -3.192000000     2.082000000
H     0.869000000    -2.077000000     1.449000000
O     5.371000000    -1.298000000    -2.966000000
H     4.960000000    -2.106000000    -2.660000000
H     5.447000000    -1.411000000    -3.913000000
O     4.252000000     0.564000000    -1.438000000
H     4.588000000     0.150000000    -2.232000000
H     3.388000000     0.893000000    -1.686000000
O     1.582000000     1.379000000     4.580000000
H     1.892000000     2.260000000     4.372000000
H     2.226000000     1.039000000     5.201000000
O     2.148000000     6.419000000    -0.632000000
H     1.284000000     6.189000000    -0.290000000
H     2.546000000     5.579000000    -0.862000000
O    -2.790000000     1.097000000     6.949000000
H    -3.153000000     0.876000000     6.091000000
H    -2.396000000     0.282000000     7.260000000
O    -1.545000000    -3.534000000     2.796000000
H    -2.434000000    -3.247000000     3.007000000
H    -1.075000000    -3.486000000     3.628000000
O    -2.348000000    -6.415000000     3.478000000
H    -2.000000000    -5.776000000     2.856000000
H    -1.728000000    -7.143000000     3.446000000
O    -0.385000000     1.321000000    -6.478000000
H     0.350000000     1.851000000    -6.170000000
H    -0.507000000     0.661000000    -5.795000000
O    -0.251000000     3.587000000     3.319000000
H    -1.095000000     3.578000000     2.867000000
H    -0.254000000     2.789000000     3.847000000
