158
-3031.55412
C     0.116000000    -0.330000000    -1.424000000
H     0.302000000    -0.792000000    -2.390000000
C    -0.544000000    -1.148000000    -0.491000000
H    -1.014000000    -2.074000000    -0.814000000
C    -0.703000000    -0.652000000     0.836000000
H    -1.341000000    -1.237000000     1.526000000
C    -0.056000000     0.558000000     1.199000000
H    -0.154000000     0.907000000     2.224000000
C     0.671000000     1.324000000     0.278000000
H     1.196000000     2.233000000     0.559000000
C     0.811000000     0.896000000    -1.075000000
C     1.657000000     1.679000000    -2.010000000
O     1.488000000     1.540000000    -3.223000000
O     2.489000000     2.481000000    -1.574000000
O     2.125000000     6.453000000     2.969000000
H     1.476000000     6.302000000     3.657000000
H     1.959000000     5.762000000     2.328000000
O    -2.884000000     0.098000000    -3.017000000
H    -2.415000000    -0.736000000    -3.054000000
H    -2.237000000     0.748000000    -3.290000000
O     1.866000000     5.150000000    -1.177000000
H     1.645000000     5.585000000    -2.000000000
H     2.061000000     4.247000000    -1.427000000
O     3.120000000    -0.744000000    -7.487000000
H     2.534000000    -0.262000000    -6.904000000
H     3.974000000    -0.330000000    -7.364000000
O     6.089000000     6.012000000    -1.497000000
H     6.006000000     5.912000000    -0.549000000
H     5.736000000     5.197000000    -1.855000000
O     4.890000000     3.363000000    -2.287000000
H     4.048000000     2.950000000    -2.093000000
H     5.523000000     2.874000000    -1.762000000
O     4.026000000     0.959000000    -3.939000000
H     3.246000000     1.295000000    -3.498000000
H     4.182000000     1.577000000    -4.653000000
O     0.062000000    -6.655000000    -2.493000000
H     0.708000000    -6.893000000    -3.159000000
H     0.207000000    -5.721000000    -2.341000000
O    -3.866000000     0.947000000     2.419000000
H    -4.594000000     1.568000000     2.392000000
H    -3.608000000     0.841000000     1.503000000
O    -0.573000000    -1.424000000     4.839000000
H    -0.302000000    -2.190000000     5.346000000
H    -0.014000000    -1.441000000     4.062000000
O     0.658000000     4.558000000     1.245000000
H     0.935000000     4.695000000     0.339000000
H    -0.261000000     4.300000000     1.178000000
O    -1.055000000     2.190000000     7.075000000
H    -0.786000000     2.096000000     6.161000000
H    -1.468000000     1.353000000     7.290000000
O    -0.628000000     5.194000000    -4.162000000
H     0.242000000     4.817000000    -4.293000000
H    -0.495000000     5.883000000    -3.511000000
O     0.250000000     1.937000000    -8.075000000
H     0.632000000     1.461000000    -7.338000000
H    -0.441000000     1.359000000    -8.400000000
O     2.858000000    -1.997000000     5.586000000
H     3.169000000    -2.901000000     5.541000000
H     2.630000000    -1.778000000     4.682000000
O     4.957000000     3.260000000    -5.223000000
H     5.153000000     3.984000000    -5.817000000
H     5.269000000     3.559000000    -4.369000000
O     1.677000000    -5.575000000     3.025000000
H     2.019000000    -6.457000000     3.170000000
H     1.316000000    -5.600000000     2.139000000
O    -2.416000000    -3.920000000     3.112000000
H    -2.861000000    -3.074000000     3.155000000
H    -2.333000000    -4.193000000     4.025000000
O    -1.567000000    -2.080000000    -3.656000000
H    -1.650000000    -2.966000000    -3.303000000
H    -1.171000000    -2.203000000    -4.519000000
O    -2.767000000     1.103000000    -0.126000000
H    -3.319000000     1.090000000    -0.908000000
H    -2.018000000     0.552000000    -0.352000000
O     0.890000000    -4.356000000    -1.165000000
H     1.178000000    -3.645000000    -0.594000000
H     0.103000000    -4.700000000    -0.741000000
O    -4.173000000    -1.697000000     2.106000000
H    -3.852000000    -0.798000000     2.173000000
H    -4.926000000    -1.726000000     2.695000000
O    -1.280000000     2.077000000    -4.094000000
H    -0.333000000     2.167000000    -3.985000000
H    -1.638000000     2.906000000    -3.778000000
O    -0.158000000    -2.096000000    -6.285000000
H    -0.008000000    -3.022000000    -6.478000000
H    -0.759000000    -1.804000000    -6.970000000
O     2.188000000    -3.811000000    -3.799000000
H     2.162000000    -4.611000000    -4.325000000
H     1.490000000    -3.924000000    -3.155000000
O     0.851000000     1.350000000     4.820000000
H     1.486000000     1.349000000     5.537000000
H     0.425000000     0.495000000     4.875000000
O     6.763000000     1.863000000    -1.181000000
H     7.090000000     1.245000000    -1.835000000
H     7.384000000     2.591000000    -1.209000000
O    -4.098000000     0.143000000     5.156000000
H    -4.545000000    -0.691000000     5.009000000
H    -3.891000000     0.461000000     4.277000000
O    -2.553000000    -4.552000000    -2.726000000
H    -2.320000000    -5.204000000    -2.064000000
H    -2.731000000    -5.065000000    -3.514000000
O     1.241000000     0.570000000    -6.050000000
H     1.331000000     0.847000000    -5.138000000
H     0.615000000    -0.154000000    -6.019000000
O    -3.455000000    -6.248000000    -0.458000000
H    -4.250000000    -6.362000000    -0.979000000
H    -3.388000000    -5.303000000    -0.325000000
O     3.666000000    -0.931000000     1.341000000
H     3.406000000    -0.014000000     1.421000000
H     4.236000000    -0.952000000     0.571000000
O    -1.948000000     3.808000000     0.595000000
H    -1.776000000     2.878000000     0.449000000
H    -2.840000000     3.940000000     0.274000000
O     2.061000000     3.280000000     3.321000000
H     1.630000000     2.629000000     3.874000000
H     1.371000000     3.908000000     3.106000000
O    -5.231000000    -5.627000000     2.077000000
H    -5.124000000    -6.524000000     2.392000000
H    -4.385000000    -5.211000000     2.247000000
O    -4.420000000    -2.495000000    -3.657000000
H    -4.075000000    -3.298000000    -3.266000000
H    -4.062000000    -1.792000000    -3.116000000
O     1.529000000    -1.569000000     3.149000000
H     2.125000000    -2.223000000     2.783000000
H     1.350000000    -0.974000000     2.421000000
O     4.988000000    -0.891000000    -1.223000000
H     5.769000000    -0.491000000    -0.841000000
H     4.831000000    -0.391000000    -2.024000000
O     6.418000000     2.489000000     1.405000000
H     6.652000000     2.066000000     0.579000000
H     5.482000000     2.675000000     1.323000000
O    -3.982000000    -3.312000000     0.041000000
H    -3.911000000    -2.701000000     0.774000000
H    -4.883000000    -3.212000000    -0.266000000
O     3.874000000     3.435000000     1.164000000
H     3.419000000     3.464000000     2.006000000
H     3.211000000     3.694000000     0.524000000
O    -2.233000000    -0.309000000     6.890000000
H    -1.608000000    -0.641000000     6.245000000
H    -3.034000000    -0.155000000     6.389000000
O     3.802000000    -1.638000000    -4.582000000
H     2.976000000    -2.082000000    -4.387000000
H     3.699000000    -0.764000000    -4.206000000
O    -1.391000000    -4.370000000     0.380000000
H    -2.124000000    -3.879000000     0.007000000
H    -1.540000000    -4.342000000     1.325000000
O    -0.102000000    -4.320000000     5.262000000
H     0.132000000    -4.698000000     4.414000000
H    -0.979000000    -4.660000000     5.441000000
O     1.700000000     3.691000000    -4.917000000
H     2.264000000     4.389000000    -4.584000000
H     1.866000000     2.950000000    -4.333000000
O    -2.130000000     3.182000000     3.949000000
H    -2.684000000     2.521000000     3.532000000
H    -1.244000000     2.827000000     3.883000000
O    -5.191000000    -2.791000000     4.534000000
H    -5.971000000    -3.001000000     4.022000000
H    -5.346000000    -3.199000000     5.386000000
