158
-3043.18369
C    -0.618000000    -0.752000000    -1.055000000
H    -1.121000000    -1.311000000    -1.841000000
C    -0.823000000    -0.967000000     0.317000000
H    -1.360000000    -1.837000000     0.685000000
C    -0.138000000    -0.148000000     1.235000000
H    -0.344000000    -0.246000000     2.323000000
C     0.667000000     0.885000000     0.776000000
H     1.182000000     1.555000000     1.459000000
C     0.943000000     1.003000000    -0.643000000
H     1.813000000     1.592000000    -0.921000000
C     0.236000000     0.225000000    -1.535000000
C     0.565000000     0.342000000    -3.025000000
O    -0.144000000    -0.205000000    -3.884000000
O     1.626000000     0.891000000    -3.433000000
O    -0.555000000    -2.660000000    -4.638000000
H    -0.726000000    -3.254000000    -3.907000000
H    -0.455000000    -1.800000000    -4.228000000
O    -1.915000000    -1.564000000    -8.780000000
H    -2.105000000    -0.708000000    -9.162000000
H    -2.038000000    -1.439000000    -7.839000000
O     0.072000000    -5.704000000     2.542000000
H     0.233000000    -6.457000000     1.973000000
H     0.391000000    -4.953000000     2.042000000
O     1.960000000     5.343000000    -6.009000000
H     1.477000000     5.143000000    -5.207000000
H     2.480000000     6.116000000    -5.789000000
O     2.382000000     5.245000000    -2.421000000
H     1.539000000     5.165000000    -1.975000000
H     2.543000000     4.375000000    -2.787000000
O     2.996000000     3.001000000    -4.059000000
H     2.439000000     2.232000000    -3.934000000
H     3.823000000     2.646000000    -4.385000000
O    -3.089000000    -4.192000000     0.796000000
H    -3.412000000    -3.416000000     0.338000000
H    -3.264000000    -4.015000000     1.720000000
O    -3.066000000     1.215000000     3.823000000
H    -3.714000000     1.179000000     4.527000000
H    -2.563000000     0.407000000     3.919000000
O    -4.961000000     1.586000000     1.966000000
H    -5.485000000     0.812000000     1.760000000
H    -4.256000000     1.256000000     2.523000000
O    -3.255000000     3.270000000    -4.752000000
H    -3.942000000     2.617000000    -4.889000000
H    -2.617000000     2.831000000    -4.190000000
O    -2.635000000    -1.532000000    -6.203000000
H    -2.709000000    -0.642000000    -5.858000000
H    -2.066000000    -1.984000000    -5.580000000
O     0.596000000    -3.365000000     6.383000000
H     0.747000000    -2.801000000     5.626000000
H     0.100000000    -4.106000000     6.035000000
O    -2.039000000    -0.884000000     4.799000000
H    -2.371000000    -0.752000000     5.687000000
H    -1.207000000    -1.343000000     4.920000000
O    -0.380000000     4.457000000    -4.384000000
H    -0.300000000     4.660000000    -3.452000000
H    -0.905000000     5.173000000    -4.742000000
O     2.844000000     1.361000000    -6.481000000
H     2.043000000     1.827000000    -6.238000000
H     2.665000000     1.017000000    -7.356000000
O    -1.580000000     1.252000000    -7.366000000
H    -1.063000000     1.305000000    -6.562000000
H    -1.157000000     0.564000000    -7.878000000
O    -2.592000000     0.502000000    -4.341000000
H    -1.739000000     0.131000000    -4.117000000
H    -3.072000000     0.519000000    -3.513000000
O     2.815000000     4.523000000     3.420000000
H     2.096000000     4.213000000     3.969000000
H     2.654000000     4.122000000     2.566000000
O     4.736000000     2.438000000     3.594000000
H     4.198000000     3.230000000     3.620000000
H     5.365000000     2.599000000     2.890000000
O    -3.876000000    -2.939000000    -3.879000000
H    -4.220000000    -3.832000000    -3.905000000
H    -3.155000000    -2.979000000    -3.251000000
O     3.087000000     0.266000000     3.761000000
H     3.536000000     1.111000000     3.782000000
H     3.727000000    -0.353000000     4.114000000
O     1.212000000     0.992000000     5.875000000
H     1.836000000     0.749000000     6.559000000
H     1.614000000     0.684000000     5.063000000
O    -3.938000000    -1.166000000     6.908000000
H    -3.780000000    -0.976000000     7.833000000
H    -4.053000000    -2.115000000     6.875000000
O    -3.422000000     0.705000000    -1.514000000
H    -4.317000000     0.531000000    -1.223000000
H    -3.085000000     1.342000000    -0.884000000
O    -1.720000000    -3.848000000    -2.060000000
H    -1.269000000    -4.543000000    -1.581000000
H    -2.130000000    -3.315000000    -1.379000000
O    -3.932000000    -2.011000000    -0.982000000
H    -4.377000000    -1.869000000    -1.817000000
H    -3.443000000    -1.203000000    -0.830000000
O     0.037000000    -4.186000000    -6.889000000
H    -0.731000000    -4.620000000    -7.259000000
H    -0.294000000    -3.736000000    -6.112000000
O     1.961000000    -1.692000000    -5.724000000
H     2.110000000    -0.925000000    -5.171000000
H     1.083000000    -1.991000000    -5.488000000
O     4.476000000     2.724000000    -0.848000000
H     4.485000000     2.933000000    -1.782000000
H     4.574000000     1.773000000    -0.814000000
O     4.556000000     0.245000000     0.053000000
H     4.814000000    -0.619000000     0.374000000
H     3.980000000     0.591000000     0.735000000
O     1.645000000    -2.489000000     4.049000000
H     1.636000000    -2.952000000     3.212000000
H     1.913000000    -1.597000000     3.827000000
O     4.902000000    -1.455000000    -6.334000000
H     4.071000000    -1.848000000    -6.067000000
H     5.158000000    -1.944000000    -7.116000000
O     0.228000000     4.019000000    -1.364000000
H     0.602000000     3.280000000    -0.883000000
H    -0.673000000     4.079000000    -1.048000000
O     0.740000000     3.712000000     4.963000000
H    -0.199000000     3.681000000     4.781000000
H     0.926000000     2.884000000     5.406000000
O     2.139000000    -3.918000000     1.218000000
H     1.726000000    -3.478000000     0.475000000
H     2.946000000    -4.287000000     0.858000000
O     5.000000000    -3.264000000    -2.663000000
H     4.522000000    -2.444000000    -2.786000000
H     4.671000000    -3.611000000    -1.834000000
O     5.130000000     1.109000000    -4.816000000
H     5.698000000     0.366000000    -5.021000000
H     4.359000000     0.980000000    -5.369000000
O     3.652000000    -0.918000000    -2.968000000
H     2.852000000    -0.458000000    -3.223000000
H     4.085000000    -0.325000000    -2.354000000
O    -5.539000000    -0.883000000    -4.328000000
H    -4.684000000    -1.312000000    -4.358000000
H    -5.432000000    -0.180000000    -3.686000000
O    -1.945000000     3.623000000     4.964000000
H    -2.340000000     2.933000000     4.431000000
H    -2.559000000     3.748000000     5.688000000
O     6.419000000     2.646000000     1.403000000
H     6.047000000     2.747000000     0.527000000
H     6.801000000     1.768000000     1.401000000
O    -4.915000000     1.069000000     5.866000000
H    -5.779000000     0.889000000     5.496000000
H    -4.601000000     0.215000000     6.164000000
O    -1.243000000     1.553000000     7.300000000
H    -0.634000000     1.405000000     6.577000000
H    -0.763000000     2.119000000     7.906000000
O     2.462000000     3.747000000     0.802000000
H     3.167000000     3.461000000     0.222000000
H     2.070000000     4.496000000     0.353000000
O    -3.504000000    -3.096000000     3.554000000
H    -4.405000000    -3.115000000     3.878000000
H    -3.148000000    -2.271000000     3.884000000
O     4.682000000    -2.165000000     4.408000000
H     5.107000000    -2.929000000     4.797000000
H     3.745000000    -2.355000000     4.468000000
O     0.311000000     1.982000000    -5.595000000
H    -0.025000000     2.746000000    -5.126000000
H     0.405000000     1.309000000    -4.921000000
O    -2.116000000     2.822000000     0.479000000
H    -2.912000000     3.300000000     0.712000000
H    -1.841000000     2.403000000     1.295000000
