158
-3024.19966
C     0.886000000     0.861000000     0.794000000
H     1.619000000     1.493000000     1.288000000
C     0.078000000     1.314000000    -0.194000000
H     0.110000000     2.330000000    -0.580000000
C    -0.732000000     0.433000000    -0.922000000
H    -1.386000000     0.957000000    -1.647000000
C    -0.748000000    -0.942000000    -0.561000000
H    -1.330000000    -1.678000000    -1.111000000
C     0.123000000    -1.382000000     0.418000000
H     0.137000000    -2.435000000     0.686000000
C     0.864000000    -0.498000000     1.174000000
C     1.743000000    -1.044000000     2.311000000
O     1.616000000    -2.212000000     2.496000000
O     2.444000000    -0.342000000     2.988000000
O     2.420000000    -5.313000000     4.211000000
H     3.079000000    -5.944000000     4.502000000
H     2.707000000    -5.054000000     3.335000000
O    -0.080000000    -2.461000000     7.287000000
H    -0.045000000    -1.545000000     7.566000000
H     0.556000000    -2.518000000     6.573000000
O     3.358000000    -0.348000000     5.776000000
H     2.798000000    -1.124000000     5.762000000
H     3.359000000    -0.036000000     4.871000000
O     2.919000000     1.586000000     7.846000000
H     3.091000000     1.035000000     7.082000000
H     3.749000000     1.601000000     8.323000000
O    -3.309000000     3.002000000     3.000000000
H    -2.886000000     2.420000000     2.368000000
H    -2.599000000     3.285000000     3.577000000
O    -7.362000000     1.667000000    -2.573000000
H    -7.741000000     1.127000000    -3.267000000
H    -6.466000000     1.345000000    -2.480000000
O     4.446000000     3.085000000     4.777000000
H     4.816000000     3.935000000     5.016000000
H     4.530000000     2.556000000     5.571000000
O    -2.754000000     0.238000000    -4.185000000
H    -2.806000000    -0.611000000    -4.625000000
H    -1.829000000     0.335000000    -3.960000000
O     3.608000000     3.981000000    -2.891000000
H     3.610000000     4.607000000    -3.615000000
H     4.501000000     4.010000000    -2.547000000
O    -0.632000000     3.432000000     3.920000000
H    -0.058000000     2.668000000     3.878000000
H    -0.512000000     3.869000000     3.077000000
O    -6.160000000    -1.719000000    -2.512000000
H    -6.055000000    -0.807000000    -2.784000000
H    -5.289000000    -2.103000000    -2.620000000
O    -4.087000000     4.620000000     1.008000000
H    -3.566000000     4.272000000     1.731000000
H    -4.925000000     4.853000000     1.407000000
O    -4.858000000     2.958000000    -4.507000000
H    -4.682000000     2.381000000    -5.249000000
H    -4.764000000     2.396000000    -3.738000000
O     1.770000000     5.456000000    -0.743000000
H     1.833000000     5.292000000    -1.684000000
H     2.601000000     5.142000000    -0.388000000
O     1.530000000     3.641000000    -5.933000000
H     2.194000000     4.329000000    -5.884000000
H     1.287000000     3.478000000    -5.022000000
O     5.045000000    -6.035000000     1.366000000
H     5.877000000    -5.575000000     1.473000000
H     4.379000000    -5.370000000     1.541000000
O     0.602000000     1.202000000     4.748000000
H     1.246000000     0.691000000     4.258000000
H    -0.192000000     0.667000000     4.730000000
O    -3.669000000    -2.051000000    -5.289000000
H    -4.064000000    -2.921000000    -5.230000000
H    -4.387000000    -1.479000000    -5.560000000
O    -1.650000000    -0.217000000     4.021000000
H    -1.069000000    -0.947000000     3.808000000
H    -1.889000000     0.155000000     3.172000000
O     7.265000000     1.561000000     2.921000000
H     7.800000000     1.388000000     2.146000000
H     6.421000000     1.154000000     2.726000000
O     4.998000000    -1.818000000     2.466000000
H     4.064000000    -1.629000000     2.556000000
H     5.215000000    -1.535000000     1.578000000
O    -0.831000000    -2.743000000     3.022000000
H     0.053000000    -2.704000000     2.657000000
H    -0.769000000    -3.388000000     3.727000000
O     3.786000000     0.032000000    -2.247000000
H     3.595000000     0.162000000    -3.176000000
H     3.968000000    -0.904000000    -2.168000000
O    -0.864000000    -3.680000000    -5.713000000
H     0.020000000    -3.497000000    -6.031000000
H    -1.254000000    -2.816000000    -5.579000000
O     2.991000000    -4.331000000     1.654000000
H     2.550000000    -4.709000000     0.893000000
H     2.409000000    -3.628000000     1.943000000
O     5.025000000     1.490000000    -0.446000000
H     4.422000000     0.948000000    -0.956000000
H     4.719000000     1.406000000     0.456000000
O    -2.221000000     0.924000000     1.608000000
H    -2.911000000     0.374000000     1.237000000
H    -1.664000000     1.146000000     0.862000000
O    -0.720000000     5.015000000    -3.156000000
H    -0.860000000     5.913000000    -2.858000000
H    -1.496000000     4.811000000    -3.677000000
O    -3.577000000    -2.694000000    -2.520000000
H    -2.749000000    -2.996000000    -2.148000000
H    -3.428000000    -2.689000000    -3.466000000
O    -0.056000000     0.268000000    -3.950000000
H     0.492000000    -0.368000000    -3.492000000
H     0.292000000     1.119000000    -3.686000000
O     0.940000000     2.907000000    -3.358000000
H     1.778000000     3.304000000    -3.120000000
H     0.311000000     3.627000000    -3.306000000
O    -4.469000000    -0.135000000     0.612000000
H    -5.325000000     0.116000000     0.959000000
H    -4.404000000    -1.073000000     0.788000000
O     1.101000000    -2.083000000    -2.662000000
H     0.464000000    -2.709000000    -2.319000000
H     1.610000000    -1.814000000    -1.897000000
O    -4.710000000     0.875000000    -2.501000000
H    -4.333000000     0.511000000    -1.700000000
H    -4.006000000     0.811000000    -3.147000000
O    -3.904000000    -4.726000000    -0.450000000
H    -4.387000000    -4.297000000    -1.157000000
H    -3.421000000    -5.430000000    -0.883000000
O    -3.301000000    -2.529000000     1.783000000
H    -3.331000000    -3.282000000     1.194000000
H    -2.369000000    -2.399000000     1.958000000
O     6.887000000    -2.557000000     4.488000000
H     7.707000000    -2.227000000     4.120000000
H     6.225000000    -2.337000000     3.833000000
O    -2.533000000     4.446000000    -5.051000000
H    -2.402000000     4.451000000    -5.999000000
H    -3.275000000     3.857000000    -4.915000000
O    -0.986000000    -4.354000000    -2.640000000
H    -0.788000000    -4.104000000    -3.543000000
H    -1.173000000    -5.291000000    -2.686000000
O     1.487000000    -5.490000000    -0.230000000
H     0.578000000    -5.774000000    -0.140000000
H     1.767000000    -5.846000000    -1.074000000
O     1.618000000    -2.636000000     5.074000000
H     1.948000000    -3.532000000     5.142000000
H     1.747000000    -2.402000000     4.155000000
O     2.145000000     5.475000000     3.959000000
H     2.449000000     4.743000000     4.496000000
H     1.848000000     6.129000000     4.592000000
O     0.677000000     0.752000000    -6.529000000
H     0.972000000     1.654000000    -6.652000000
H     0.383000000     0.718000000    -5.619000000
O    -4.697000000     5.818000000    -2.709000000
H    -3.819000000     6.199000000    -2.674000000
H    -4.581000000     4.993000000    -3.181000000
O     0.479000000     4.537000000     1.695000000
H     0.897000000     4.991000000     0.963000000
H     1.107000000     4.612000000     2.413000000
O     4.437000000     1.289000000     2.282000000
H     4.307000000     1.987000000     2.924000000
H     3.832000000     0.599000000     2.553000000
O     2.572000000    -2.547000000    -4.844000000
H     3.140000000    -1.779000000    -4.910000000
H     2.058000000    -2.397000000    -4.050000000
O     4.049000000     4.333000000     0.674000000
H     4.859000000     4.012000000     1.071000000
H     3.933000000     3.791000000    -0.106000000
