158
-3025.35865
C    -1.067000000    -0.341000000    -1.001000000
H    -1.887000000    -0.369000000    -1.714000000
C    -1.226000000     0.014000000     0.333000000
H    -2.200000000     0.144000000     0.797000000
C    -0.156000000     0.316000000     1.174000000
H    -0.407000000     0.660000000     2.221000000
C     1.127000000     0.221000000     0.690000000
H     1.993000000     0.419000000     1.316000000
C     1.304000000    -0.139000000    -0.669000000
H     2.316000000    -0.175000000    -1.066000000
C     0.258000000    -0.406000000    -1.500000000
C     0.499000000    -0.831000000    -2.934000000
O    -0.411000000    -1.330000000    -3.568000000
O     1.595000000    -1.199000000    -3.196000000
O     0.565000000    -4.960000000    -5.031000000
H     1.448000000    -4.996000000    -5.400000000
H     0.339000000    -5.875000000    -4.862000000
O    -2.622000000    -2.982000000    -3.690000000
H    -3.160000000    -2.763000000    -2.930000000
H    -1.850000000    -2.423000000    -3.606000000
O     2.139000000     5.150000000     5.341000000
H     1.966000000     4.222000000     5.499000000
H     1.293000000     5.577000000     5.476000000
O     5.556000000    -0.267000000    -5.324000000
H     5.649000000     0.567000000    -5.783000000
H     6.418000000    -0.427000000    -4.940000000
O    -3.118000000     3.896000000     5.509000000
H    -3.620000000     4.687000000     5.309000000
H    -3.255000000     3.757000000     6.446000000
O    -2.613000000    -4.844000000    -5.514000000
H    -3.253000000    -4.407000000    -6.075000000
H    -2.378000000    -4.185000000    -4.860000000
O    -4.085000000     5.867000000     3.770000000
H    -4.064000000     5.032000000     3.302000000
H    -4.324000000     6.510000000     3.102000000
O     4.846000000     2.789000000    -2.506000000
H     4.262000000     3.296000000    -1.942000000
H     4.276000000     2.143000000    -2.923000000
O     2.852000000     1.155000000    -3.634000000
H     2.491000000     0.298000000    -3.408000000
H     2.830000000     1.179000000    -4.591000000
O    -4.494000000     1.726000000    -0.743000000
H    -4.279000000     1.493000000     0.159000000
H    -3.785000000     2.309000000    -1.015000000
O    -0.638000000     3.948000000     7.270000000
H    -0.709000000     3.049000000     6.949000000
H    -1.468000000     4.110000000     7.717000000
O    -0.268000000     1.017000000     6.986000000
H     0.356000000     0.711000000     7.644000000
H    -1.115000000     0.688000000     7.288000000
O    -2.641000000    -2.006000000    -7.513000000
H    -2.930000000    -2.918000000    -7.547000000
H    -1.808000000    -2.036000000    -7.041000000
O    -1.262000000    -1.462000000     6.449000000
H    -0.658000000    -0.747000000     6.249000000
H    -0.888000000    -1.882000000     7.224000000
O     0.447000000     3.133000000    -4.218000000
H     0.142000000     4.018000000    -4.020000000
H     1.162000000     2.982000000    -3.600000000
O    -0.272000000    -2.464000000    -5.910000000
H    -0.291000000    -1.961000000    -5.095000000
H    -0.033000000    -3.350000000    -5.639000000
O    -2.841000000     0.718000000    -7.627000000
H    -2.260000000     0.956000000    -6.905000000
H    -3.030000000    -0.210000000    -7.487000000
O    -4.929000000     1.925000000     4.765000000
H    -4.722000000     1.139000000     5.269000000
H    -4.204000000     2.523000000     4.946000000
O    -3.423000000     2.130000000    -3.828000000
H    -2.612000000     1.647000000    -3.670000000
H    -3.469000000     2.762000000    -3.111000000
O     3.856000000     1.709000000     4.990000000
H     4.696000000     2.045000000     4.677000000
H     4.084000000     1.143000000     5.727000000
O    -5.829000000    -1.092000000    -2.928000000
H    -5.716000000    -2.042000000    -2.893000000
H    -5.079000000    -0.744000000    -2.445000000
O     2.152000000    -2.588000000     3.678000000
H     1.400000000    -3.171000000     3.573000000
H     2.206000000    -2.116000000     2.847000000
O    -2.775000000     3.810000000    -1.533000000
H    -3.181000000     4.667000000    -1.405000000
H    -1.981000000     3.838000000    -0.999000000
O    -3.564000000    -2.460000000    -1.096000000
H    -4.119000000    -2.351000000    -0.324000000
H    -2.986000000    -3.190000000    -0.874000000
O     2.905000000    -3.996000000    -1.367000000
H     3.164000000    -3.535000000    -0.569000000
H     2.046000000    -3.636000000    -1.585000000
O     0.317000000    -3.696000000    -2.561000000
H     0.332000000    -4.290000000    -3.312000000
H     0.211000000    -2.826000000    -2.947000000
O     4.349000000     0.162000000     2.408000000
H     3.904000000     0.487000000     3.190000000
H     4.762000000     0.937000000     2.027000000
O     6.008000000    -2.406000000    -1.151000000
H     5.313000000    -2.371000000    -0.494000000
H     5.644000000    -2.942000000    -1.856000000
O    -1.750000000    -3.314000000     4.050000000
H    -1.143000000    -2.966000000     3.397000000
H    -1.500000000    -2.879000000     4.865000000
O    -0.738000000     4.252000000     1.048000000
H     0.152000000     4.592000000     1.138000000
H    -0.899000000     3.783000000     1.867000000
O     4.855000000    -3.982000000    -3.158000000
H     4.466000000    -3.474000000    -3.870000000
H     4.144000000    -4.092000000    -2.526000000
O    -3.860000000     1.906000000     1.977000000
H    -4.003000000     1.201000000     2.609000000
H    -3.057000000     2.334000000     2.274000000
O     2.999000000     3.659000000    -0.767000000
H     2.086000000     3.387000000    -0.860000000
H     2.972000000     4.374000000    -0.130000000
O     5.593000000     3.363000000     3.377000000
H     5.016000000     3.353000000     2.613000000
H     5.238000000     4.053000000     3.937000000
O     1.020000000     2.291000000     5.037000000
H     0.726000000     1.876000000     5.848000000
H     1.896000000     1.934000000     4.889000000
O    -1.446000000    -4.017000000    -0.642000000
H    -0.767000000    -3.816000000    -1.287000000
H    -1.738000000    -4.900000000    -0.870000000
O     3.700000000    -2.363000000     1.222000000
H     4.434000000    -2.834000000     1.616000000
H     3.729000000    -1.494000000     1.623000000
O     1.890000000    -1.036000000    -7.197000000
H     1.050000000    -1.332000000    -6.846000000
H     2.492000000    -1.090000000    -6.455000000
O     3.556000000    -2.275000000    -5.023000000
H     2.986000000    -1.981000000    -4.313000000
H     4.190000000    -1.566000000    -5.130000000
O    -1.229000000     3.172000000     3.710000000
H    -0.395000000     2.915000000     4.103000000
H    -1.666000000     3.684000000     4.390000000
O     2.007000000     5.238000000     1.406000000
H     1.994000000     5.350000000     2.357000000
H     2.602000000     5.920000000     1.093000000
O     3.497000000    -4.763000000    -6.426000000
H     3.542000000    -3.953000000    -5.918000000
H     3.999000000    -4.577000000    -7.219000000
O     5.159000000     2.313000000     0.871000000
H     4.431000000     2.472000000     0.270000000
H     5.943000000     2.454000000     0.340000000
O    -3.998000000    -0.645000000     6.058000000
H    -3.045000000    -0.735000000     6.055000000
H    -4.196000000    -0.220000000     6.892000000
O    -0.126000000    -2.710000000     1.791000000
H    -0.028000000    -1.893000000     1.302000000
H    -0.667000000    -3.262000000     1.227000000
O     2.546000000    -3.518000000     6.251000000
H     2.622000000    -4.466000000     6.144000000
H     2.274000000    -3.201000000     5.389000000
O    -0.717000000     1.042000000    -5.342000000
H    -0.307000000     1.797000000    -4.920000000
H    -0.483000000     0.300000000    -4.784000000
O     0.266000000     2.860000000    -1.117000000
H     0.077000000     1.932000000    -0.978000000
H    -0.297000000     3.315000000    -0.491000000
