158
-3003.34179
C    -1.023000000    -0.751000000    -0.743000000
H    -1.853000000    -1.297000000    -1.183000000
C    -1.111000000    -0.420000000     0.603000000
H    -2.023000000    -0.643000000     1.151000000
C    -0.054000000     0.290000000     1.188000000
H    -0.069000000     0.659000000     2.198000000
C     1.122000000     0.470000000     0.496000000
H     1.862000000     1.133000000     0.935000000
C     1.301000000    -0.052000000    -0.776000000
H     2.235000000     0.131000000    -1.299000000
C     0.145000000    -0.474000000    -1.438000000
C     0.266000000    -0.772000000    -2.904000000
O    -0.833000000    -0.919000000    -3.452000000
O     1.245000000    -0.488000000    -3.588000000
O     0.738000000    -2.019000000    -8.623000000
H     1.031000000    -1.740000000    -7.755000000
H     1.547000000    -2.186000000    -9.107000000
O     0.029000000    -5.586000000    -4.177000000
H     0.804000000    -5.820000000    -3.665000000
H     0.151000000    -4.659000000    -4.384000000
O    -3.202000000    -2.089000000    -3.075000000
H    -3.265000000    -1.847000000    -2.151000000
H    -2.374000000    -1.707000000    -3.367000000
O     4.990000000    -1.826000000    -2.378000000
H     5.141000000    -1.069000000    -2.944000000
H     5.790000000    -1.899000000    -1.857000000
O    -5.138000000    -2.431000000    -5.321000000
H    -4.548000000    -2.731000000    -4.630000000
H    -5.226000000    -1.490000000    -5.169000000
O     5.156000000     2.585000000    -2.966000000
H     5.113000000     2.426000000    -2.023000000
H     4.280000000     2.369000000    -3.286000000
O     2.658000000     1.697000000    -4.216000000
H     2.013000000     1.054000000    -3.923000000
H     3.479000000     1.207000000    -4.267000000
O    -5.201000000    -1.820000000     0.979000000
H    -5.845000000    -2.478000000     1.240000000
H    -4.414000000    -2.044000000     1.477000000
O    -3.031000000     2.808000000     0.900000000
H    -3.285000000     3.725000000     0.795000000
H    -3.082000000     2.443000000     0.017000000
O    -2.028000000     3.609000000     6.197000000
H    -1.893000000     2.677000000     6.368000000
H    -1.403000000     3.818000000     5.502000000
O    -5.371000000    -0.551000000     5.929000000
H    -5.280000000    -0.323000000     6.854000000
H    -4.569000000    -0.222000000     5.521000000
O    -1.126000000    -4.494000000    -1.222000000
H    -2.041000000    -4.673000000    -1.440000000
H    -0.687000000    -5.339000000    -1.318000000
O    -2.000000000    -2.373000000     5.157000000
H    -1.792000000    -3.072000000     5.777000000
H    -1.186000000    -1.878000000     5.071000000
O    -1.741000000    -0.853000000    -8.141000000
H    -1.747000000    -0.424000000    -7.285000000
H    -0.934000000    -1.369000000    -8.144000000
O    -4.380000000    -4.649000000    -0.072000000
H    -4.678000000    -3.748000000     0.054000000
H    -5.061000000    -5.053000000    -0.610000000
O     2.006000000     0.939000000     7.189000000
H     1.944000000     1.172000000     6.262000000
H     1.530000000     1.634000000     7.643000000
O    -0.114000000     2.869000000    -5.345000000
H     0.648000000     2.515000000    -4.886000000
H     0.010000000     3.818000000    -5.317000000
O     0.078000000    -3.117000000    -4.871000000
H     0.597000000    -2.600000000    -5.488000000
H    -0.333000000    -2.467000000    -4.301000000
O    -4.359000000     0.389000000    -5.701000000
H    -3.528000000     0.228000000    -5.254000000
H    -4.120000000     0.898000000    -6.475000000
O    -3.273000000     3.163000000    -3.987000000
H    -4.123000000     2.886000000    -3.646000000
H    -2.931000000     2.389000000    -4.435000000
O     0.794000000     2.214000000     4.645000000
H     1.607000000     2.415000000     4.182000000
H     0.102000000     2.426000000     4.019000000
O     4.220000000    -0.220000000    -7.963000000
H     3.660000000     0.293000000    -7.381000000
H     4.539000000     0.412000000    -8.608000000
O    -5.436000000     2.207000000    -2.847000000
H    -6.357000000     2.295000000    -3.091000000
H    -5.415000000     1.453000000    -2.259000000
O    -5.123000000    -0.181000000    -1.033000000
H    -5.684000000    -0.501000000    -1.740000000
H    -5.295000000    -0.777000000    -0.304000000
O    -4.765000000     1.565000000     2.585000000
H    -4.188000000     1.846000000     1.875000000
H    -4.230000000     0.967000000     3.106000000
O    -1.599000000     5.513000000    -1.004000000
H    -1.230000000     4.633000000    -1.070000000
H    -0.838000000     6.084000000    -0.893000000
O    -3.497000000    -4.952000000    -3.885000000
H    -2.936000000    -5.721000000    -3.778000000
H    -2.940000000    -4.213000000    -3.641000000
O     2.359000000    -1.538000000     3.666000000
H     2.853000000    -1.459000000     4.483000000
H     2.981000000    -1.282000000     2.985000000
O    -3.310000000    -2.813000000     2.921000000
H    -2.763000000    -2.683000000     3.695000000
H    -3.673000000    -3.692000000     3.029000000
O     4.847000000     3.026000000    -0.137000000
H     4.319000000     2.773000000     0.620000000
H     4.945000000     3.975000000    -0.054000000
O     2.306000000     1.680000000    -6.899000000
H     1.626000000     2.304000000    -7.153000000
H     2.371000000     1.770000000    -5.949000000
O    -0.820000000     3.336000000     2.745000000
H    -0.299000000     3.592000000     1.984000000
H    -1.728000000     3.438000000     2.459000000
O     4.449000000    -2.351000000     1.841000000
H     5.314000000    -1.962000000     1.966000000
H     4.513000000    -3.214000000     2.249000000
O    -2.900000000     0.649000000     4.227000000
H    -2.254000000     1.296000000     4.511000000
H    -2.379000000    -0.107000000     3.957000000
O     0.876000000     3.926000000     0.701000000
H     0.304000000     3.543000000     0.035000000
H     1.145000000     4.766000000     0.331000000
O     2.628000000     3.382000000     2.860000000
H     3.132000000     4.179000000     3.028000000
H     2.017000000     3.627000000     2.165000000
O    -0.018000000    -0.776000000     4.997000000
H     0.255000000     0.108000000     5.243000000
H     0.741000000    -1.144000000     4.543000000
O     0.224000000    -3.200000000     0.801000000
H    -0.001000000    -2.274000000     0.709000000
H    -0.246000000    -3.633000000     0.089000000
O     2.824000000    -4.127000000     0.139000000
H     3.162000000    -3.266000000     0.384000000
H     1.923000000    -4.132000000     0.464000000
O     1.754000000    -0.904000000    -6.327000000
H     2.032000000    -1.070000000    -5.426000000
H     1.689000000     0.049000000    -6.385000000
O     2.941000000    -2.487000000    -4.114000000
H     2.219000000    -1.872000000    -3.985000000
H     3.597000000    -2.224000000    -3.469000000
O     4.682000000     1.475000000     4.676000000
H     5.050000000     2.171000000     5.221000000
H     4.096000000     1.929000000     4.071000000
O    -0.290000000     5.755000000     4.285000000
H    -0.073000000     5.019000000     3.712000000
H     0.537000000     5.977000000     4.713000000
O     4.900000000    -0.283000000    -4.749000000
H     5.330000000    -1.049000000    -5.130000000
H     5.260000000     0.460000000    -5.234000000
O     4.283000000    -4.247000000    -5.395000000
H     5.131000000    -3.801000000    -5.409000000
H     3.728000000    -3.688000000    -4.851000000
O     0.865000000    -3.988000000     3.270000000
H     1.378000000    -3.258000000     3.618000000
H     0.601000000    -3.700000000     2.396000000
O    -1.560000000     0.350000000    -5.605000000
H    -1.279000000     1.244000000    -5.409000000
H    -1.305000000    -0.156000000    -4.833000000
O    -0.576000000     2.932000000    -1.456000000
H    -0.568000000     1.976000000    -1.400000000
H    -0.903000000     3.117000000    -2.337000000
