158
-3041.69201
C    -0.237000000     1.368000000    -0.438000000
H    -0.479000000     2.401000000    -0.674000000
C    -0.850000000     0.746000000     0.607000000
H    -1.568000000     1.262000000     1.239000000
C    -0.511000000    -0.526000000     1.004000000
H    -1.027000000    -0.975000000     1.792000000
C     0.472000000    -1.181000000     0.262000000
H     0.657000000    -2.234000000     0.460000000
C     1.014000000    -0.643000000    -0.920000000
H     1.665000000    -1.310000000    -1.479000000
C     0.685000000     0.703000000    -1.247000000
C     1.268000000     1.422000000    -2.454000000
O     0.907000000     2.546000000    -2.792000000
O     2.102000000     0.822000000    -3.095000000
O     2.493000000     4.711000000    -3.313000000
H     3.401000000     4.424000000    -3.409000000
H     2.049000000     3.968000000    -2.904000000
O     3.346000000     1.161000000    -5.530000000
H     2.649000000     0.532000000    -5.715000000
H     3.215000000     1.402000000    -4.613000000
O    -4.572000000    -0.070000000     2.471000000
H    -4.912000000     0.603000000     1.881000000
H    -4.122000000    -0.688000000     1.894000000
O    -2.576000000    -1.016000000    -1.534000000
H    -2.706000000    -1.886000000    -1.911000000
H    -1.651000000    -0.995000000    -1.291000000
O    -2.151000000     6.739000000    -2.041000000
H    -1.386000000     6.167000000    -1.978000000
H    -2.862000000     6.233000000    -1.649000000
O     2.611000000    -4.110000000     0.474000000
H     1.702000000    -4.234000000     0.202000000
H     2.550000000    -3.713000000     1.342000000
O    -5.310000000    -0.678000000     4.992000000
H    -5.836000000    -0.030000000     5.461000000
H    -5.057000000    -0.237000000     4.180000000
O     0.861000000     2.265000000    -7.917000000
H     0.970000000     2.540000000    -7.007000000
H     1.178000000     1.362000000    -7.935000000
O     1.881000000    -3.585000000     3.516000000
H     1.444000000    -2.802000000     3.849000000
H     1.824000000    -4.216000000     4.234000000
O     2.717000000     7.495000000    -2.673000000
H     2.356000000     7.947000000    -3.435000000
H     2.239000000     6.666000000    -2.637000000
O    -1.996000000     2.388000000    -3.472000000
H    -2.377000000     2.364000000    -4.350000000
H    -1.058000000     2.266000000    -3.614000000
O    -5.903000000     1.445000000     0.613000000
H    -5.187000000     1.427000000    -0.022000000
H    -6.644000000     1.056000000     0.149000000
O     1.733000000    -7.237000000     0.122000000
H     1.166000000    -6.466000000     0.108000000
H     2.309000000    -7.098000000     0.874000000
O    -3.545000000     0.831000000     7.633000000
H    -2.920000000     0.996000000     6.927000000
H    -4.362000000     1.223000000     7.326000000
O    -3.277000000    -2.270000000     1.140000000
H    -3.886000000    -2.970000000     0.904000000
H    -2.892000000    -1.996000000     0.307000000
O    -1.319000000    -3.442000000     3.328000000
H    -1.598000000    -2.732000000     2.750000000
H    -1.507000000    -4.240000000     2.835000000
O    -2.895000000    -3.110000000    -3.372000000
H    -3.209000000    -3.984000000    -3.601000000
H    -1.941000000    -3.179000000    -3.411000000
O    -1.396000000     1.003000000    -6.339000000
H    -1.523000000     0.392000000    -7.066000000
H    -0.740000000     1.623000000    -6.659000000
O     1.445000000     5.954000000     0.488000000
H     0.962000000     6.478000000     1.127000000
H     1.540000000     5.097000000     0.904000000
O     0.703000000    -6.323000000     4.273000000
H     0.621000000    -5.668000000     4.966000000
H    -0.199000000    -6.562000000     4.062000000
O    -5.622000000    -4.745000000     3.934000000
H    -5.226000000    -4.545000000     3.086000000
H    -6.143000000    -3.970000000     4.143000000
O     4.854000000     3.620000000    -3.785000000
H     5.071000000     3.607000000    -4.717000000
H     5.319000000     2.868000000    -3.420000000
O    -0.289000000     4.791000000    -1.794000000
H     0.204000000     4.045000000    -2.136000000
H     0.273000000     5.156000000    -1.111000000
O     4.938000000    -0.647000000     1.400000000
H     4.068000000    -0.256000000     1.470000000
H     5.532000000     0.029000000     1.726000000
O     2.321000000    -5.122000000    -2.701000000
H     2.920000000    -5.442000000    -2.027000000
H     2.411000000    -5.749000000    -3.419000000
O     4.429000000    -2.789000000    -0.977000000
H     3.954000000    -3.295000000    -0.317000000
H     4.203000000    -1.878000000    -0.788000000
O     1.587000000     1.160000000     4.532000000
H     1.721000000     0.963000000     5.459000000
H     1.477000000     2.110000000     4.502000000
O    -2.369000000    -5.496000000     1.524000000
H    -3.193000000    -5.109000000     1.226000000
H    -2.631000000    -6.293000000     1.983000000
O     4.777000000     3.236000000    -6.547000000
H     5.230000000     2.886000000    -7.313000000
H     4.122000000     2.571000000    -6.332000000
O     3.706000000    -2.047000000    -3.575000000
H     3.372000000    -1.166000000    -3.406000000
H     3.874000000    -2.410000000    -2.705000000
O     1.479000000     3.799000000     1.823000000
H     0.789000000     3.136000000     1.856000000
H     1.647000000     4.015000000     2.740000000
O     0.716000000     3.225000000    -5.418000000
H     0.305000000     4.076000000    -5.267000000
H     0.951000000     2.914000000    -4.544000000
O    -2.355000000    -0.406000000     5.155000000
H    -3.189000000    -0.876000000     5.139000000
H    -2.442000000     0.259000000     4.473000000
O    -2.755000000    -3.769000000     6.283000000
H    -2.045000000    -3.776000000     6.925000000
H    -2.312000000    -3.818000000     5.436000000
O     4.500000000     1.650000000    -1.451000000
H     4.239000000     2.421000000    -0.947000000
H     3.794000000     1.530000000    -2.087000000
O     1.764000000     6.437000000    -5.226000000
H     2.299000000     5.756000000    -4.818000000
H     2.397000000     7.088000000    -5.531000000
O    -3.997000000     4.438000000    -2.861000000
H    -4.566000000     3.907000000    -3.417000000
H    -3.154000000     3.985000000    -2.878000000
O    -0.218000000    -3.731000000    -2.654000000
H     0.527000000    -3.171000000    -2.872000000
H     0.051000000    -4.606000000    -2.934000000
O     0.792000000    -4.213000000     6.053000000
H     0.814000000    -3.304000000     5.756000000
H     0.419000000    -4.169000000     6.934000000
O    -4.758000000    -4.481000000     0.654000000
H    -4.989000000    -5.398000000     0.806000000
H    -5.586000000    -4.061000000     0.421000000
O    -1.021000000    -1.240000000    -4.716000000
H    -1.883000000    -1.432000000    -4.346000000
H    -1.111000000    -0.364000000    -5.090000000
O    -3.011000000     1.844000000     3.699000000
H    -3.409000000     2.695000000     3.884000000
H    -3.703000000     1.346000000     3.263000000
O    -4.243000000     1.205000000    -1.611000000
H    -3.896000000     0.336000000    -1.410000000
H    -3.585000000     1.599000000    -2.184000000
O     2.650000000     0.514000000     1.924000000
H     1.974000000     0.480000000     1.247000000
H     2.169000000     0.415000000     2.746000000
O     0.477000000    -1.368000000     4.871000000
H    -0.472000000    -1.257000000     4.826000000
H     0.831000000    -0.548000000     4.527000000
O     0.037000000    -5.028000000     0.125000000
H    -0.247000000    -4.794000000    -0.759000000
H    -0.772000000    -5.066000000     0.634000000
O     3.383000000     4.060000000    -0.221000000
H     2.910000000     4.802000000    -0.597000000
H     2.908000000     3.858000000     0.585000000
O     1.692000000    -1.219000000    -5.552000000
H     0.789000000    -1.062000000    -5.275000000
H     2.198000000    -1.203000000    -4.740000000
