158
-3025.43547
C    -0.674000000     1.270000000    -0.378000000
H    -1.009000000     2.289000000    -0.552000000
C    -0.879000000     0.583000000     0.780000000
H    -1.438000000     1.098000000     1.557000000
C    -0.230000000    -0.601000000     1.034000000
H    -0.341000000    -1.045000000     1.994000000
C     0.665000000    -1.139000000     0.060000000
H     1.155000000    -2.092000000     0.239000000
C     0.874000000    -0.375000000    -1.090000000
H     1.560000000    -0.809000000    -1.813000000
C     0.168000000     0.783000000    -1.370000000
C     0.379000000     1.555000000    -2.614000000
O    -0.426000000     2.346000000    -3.044000000
O     1.439000000     1.282000000    -3.230000000
O     2.887000000     3.577000000    -3.453000000
H     3.201000000     3.810000000    -2.579000000
H     2.403000000     2.762000000    -3.325000000
O     1.606000000    -2.292000000    -6.369000000
H     0.817000000    -2.825000000    -6.472000000
H     1.308000000    -1.510000000    -5.905000000
O    -3.315000000    -3.781000000     0.086000000
H    -3.954000000    -4.348000000    -0.347000000
H    -2.484000000    -4.249000000     0.003000000
O     2.870000000    -1.136000000     6.361000000
H     2.009000000    -0.721000000     6.316000000
H     3.467000000    -0.426000000     6.594000000
O    -1.234000000    -5.816000000    -1.422000000
H    -2.134000000    -6.067000000    -1.632000000
H    -1.217000000    -5.763000000    -0.466000000
O     6.261000000    -3.639000000    -1.336000000
H     5.538000000    -3.023000000    -1.222000000
H     5.847000000    -4.502000000    -1.318000000
O    -0.308000000    -3.304000000     6.445000000
H    -0.801000000    -3.546000000     7.229000000
H    -0.887000000    -2.705000000     5.974000000
O     2.541000000    -4.200000000    -4.538000000
H     1.856000000    -4.551000000    -3.969000000
H     2.105000000    -3.513000000    -5.042000000
O    -1.355000000    -5.214000000     1.349000000
H    -0.805000000    -4.626000000     1.867000000
H    -1.937000000    -5.624000000     1.989000000
O     1.352000000     6.986000000    -3.126000000
H     1.184000000     7.173000000    -4.050000000
H     1.115000000     6.065000000    -3.020000000
O    -2.508000000     1.647000000    -4.291000000
H    -2.042000000     0.945000000    -4.746000000
H    -1.821000000     2.132000000    -3.834000000
O    -4.341000000     4.446000000    -6.297000000
H    -3.640000000     4.060000000    -5.772000000
H    -5.128000000     3.970000000    -6.033000000
O     0.285000000     3.195000000    -7.952000000
H    -0.501000000     3.714000000    -8.125000000
H     0.410000000     3.259000000    -7.006000000
O    -5.228000000    -3.076000000     2.003000000
H    -5.715000000    -3.891000000     1.875000000
H    -4.533000000    -3.107000000     1.345000000
O    -4.835000000     0.230000000    -1.024000000
H    -5.319000000    -0.478000000    -1.450000000
H    -3.981000000    -0.151000000    -0.821000000
O    -4.120000000    -4.202000000     4.252000000
H    -4.449000000    -3.649000000     3.544000000
H    -3.484000000    -4.778000000     3.829000000
O    -5.143000000     1.638000000    -5.298000000
H    -5.868000000     1.629000000    -4.673000000
H    -4.358000000     1.575000000    -4.753000000
O    -1.338000000     7.002000000    -4.521000000
H    -1.179000000     6.442000000    -3.761000000
H    -0.579000000     6.859000000    -5.086000000
O    -1.769000000     3.260000000     2.824000000
H    -2.573000000     2.753000000     2.701000000
H    -1.800000000     3.539000000     3.739000000
O     3.587000000     4.283000000    -0.865000000
H     3.338000000     3.402000000    -0.587000000
H     4.138000000     4.612000000    -0.155000000
O    -1.574000000    -0.660000000    -5.927000000
H    -1.542000000    -0.207000000    -6.770000000
H    -0.658000000    -0.721000000    -5.654000000
O     0.044000000     5.111000000     0.417000000
H    -0.723000000     5.438000000     0.887000000
H     0.447000000     4.487000000     1.021000000
O    -4.581000000     3.991000000     0.126000000
H    -4.081000000     3.366000000    -0.398000000
H    -5.424000000     4.060000000    -0.322000000
O    -4.332000000     2.867000000     2.513000000
H    -4.208000000     3.386000000     1.718000000
H    -5.261000000     2.638000000     2.508000000
O     0.382000000    -7.596000000     2.882000000
H     0.822000000    -7.225000000     3.647000000
H    -0.304000000    -6.963000000     2.670000000
O    -0.569000000     5.025000000    -2.467000000
H    -0.556000000     5.148000000    -1.518000000
H    -0.295000000     4.116000000    -2.594000000
O     4.904000000    -1.441000000    -0.245000000
H     4.311000000    -0.736000000    -0.503000000
H     5.646000000    -0.994000000     0.160000000
O     6.424000000     1.411000000    -2.154000000
H     5.490000000     1.239000000    -2.032000000
H     6.675000000     0.856000000    -2.892000000
O     1.341000000    -4.685000000    -0.225000000
H     0.492000000    -4.820000000    -0.646000000
H     1.127000000    -4.339000000     0.642000000
O    -2.313000000     3.989000000     5.510000000
H    -2.854000000     3.206000000     5.404000000
H    -2.925000000     4.718000000     5.415000000
O     3.992000000    -0.598000000    -4.899000000
H     3.177000000    -0.939000000    -4.530000000
H     3.749000000    -0.293000000    -5.774000000
O     1.067000000    -1.544000000     4.043000000
H     1.850000000    -1.648000000     4.584000000
H     0.472000000    -1.023000000     4.582000000
O     4.006000000    -2.952000000     2.818000000
H     3.654000000    -3.829000000     2.969000000
H     3.934000000    -2.825000000     1.872000000
O     4.522000000     2.632000000    -5.843000000
H     5.289000000     2.389000000    -5.325000000
H     3.776000000     2.374000000    -5.302000000
O     1.142000000     3.332000000     2.365000000
H     0.220000000     3.161000000     2.558000000
H     1.517000000     3.595000000     3.205000000
O     1.079000000     0.048000000    -5.601000000
H     1.537000000     0.467000000    -6.330000000
H     1.163000000     0.669000000    -4.877000000
O    -0.118000000    -0.058000000     6.288000000
H    -0.997000000    -0.259000000     5.966000000
H    -0.207000000    -0.056000000     7.241000000
O    -2.318000000    -1.754000000     5.403000000
H    -3.022000000    -2.399000000     5.345000000
H    -2.738000000    -0.920000000     5.193000000
O     3.894000000     1.030000000    -1.698000000
H     3.408000000     1.448000000    -0.987000000
H     3.259000000     0.958000000    -2.411000000
O     0.850000000     3.685000000    -5.271000000
H     1.678000000     3.912000000    -4.848000000
H     0.349000000     3.236000000    -4.590000000
O    -4.196000000     2.608000000    -2.336000000
H    -4.454000000     1.722000000    -2.080000000
H    -3.490000000     2.477000000    -2.969000000
O    -3.882000000     0.838000000     4.684000000
H    -4.425000000     0.861000000     3.896000000
H    -4.458000000     1.153000000     5.380000000
O    -3.181000000     6.161000000    -2.008000000
H    -2.450000000     6.185000000    -2.626000000
H    -3.133000000     5.289000000    -1.615000000
O     0.529000000    -5.740000000     5.180000000
H     0.453000000    -4.965000000     5.736000000
H     1.354000000    -6.146000000     5.446000000
O    -2.650000000    -1.215000000    -1.040000000
H    -2.884000000    -2.107000000    -0.784000000
H    -1.716000000    -1.146000000    -0.841000000
O     2.819000000    -0.321000000     2.086000000
H     2.561000000    -0.796000000     1.297000000
H     2.340000000    -0.751000000     2.793000000
O     0.771000000    -3.957000000     2.476000000
H     1.278000000    -4.594000000     2.978000000
H     0.879000000    -3.135000000     2.954000000
O     2.713000000     2.067000000     0.669000000
H     2.101000000     2.548000000     1.226000000
H     2.772000000     1.200000000     1.070000000
