158
-3055.76702
C    -0.230000000     1.196000000    -0.842000000
H    -0.531000000     2.051000000    -1.443000000
C    -1.148000000     0.671000000     0.071000000
H    -2.114000000     1.158000000     0.175000000
C    -0.852000000    -0.476000000     0.762000000
H    -1.596000000    -0.867000000     1.478000000
C     0.477000000    -0.952000000     0.777000000
H     0.766000000    -1.841000000     1.331000000
C     1.442000000    -0.403000000    -0.111000000
H     2.363000000    -0.893000000    -0.414000000
C     1.074000000     0.709000000    -0.925000000
C     2.049000000     1.362000000    -1.832000000
O     1.718000000     2.278000000    -2.552000000
O     3.242000000     1.102000000    -1.858000000
O     4.921000000    -1.365000000    -4.393000000
H     4.009000000    -1.517000000    -4.640000000
H     4.967000000    -0.426000000    -4.211000000
O    -6.803000000    -4.900000000     2.126000000
H    -7.341000000    -4.501000000     2.810000000
H    -6.216000000    -4.198000000     1.844000000
O    -5.564000000    -2.706000000    -1.131000000
H    -6.487000000    -2.952000000    -1.199000000
H    -5.388000000    -2.696000000    -0.190000000
O    -4.071000000    -1.185000000     5.726000000
H    -4.759000000    -1.050000000     5.074000000
H    -3.601000000    -1.961000000     5.420000000
O    -5.123000000     2.542000000     3.306000000
H    -6.021000000     2.787000000     3.084000000
H    -4.583000000     3.230000000     2.917000000
O    -0.902000000    -4.006000000     1.751000000
H    -0.916000000    -3.954000000     2.707000000
H    -1.483000000    -4.737000000     1.543000000
O     2.082000000     6.719000000    -0.475000000
H     2.048000000     6.947000000    -1.404000000
H     1.971000000     5.768000000    -0.457000000
O    -1.005000000    -3.076000000    -1.364000000
H    -0.904000000    -2.951000000    -0.420000000
H    -1.431000000    -3.930000000    -1.447000000
O     4.497000000    -4.379000000    -2.256000000
H     3.651000000    -4.122000000    -1.891000000
H     4.463000000    -4.087000000    -3.167000000
O    -3.223000000     4.699000000     2.837000000
H    -3.336000000     5.236000000     2.052000000
H    -3.141000000     5.333000000     3.550000000
O    -3.158000000     0.631000000     3.384000000
H    -3.911000000     1.221000000     3.433000000
H    -2.774000000     0.660000000     4.261000000
O    -0.137000000     1.759000000    -4.306000000
H    -0.242000000     0.807000000    -4.308000000
H     0.641000000     1.913000000    -3.770000000
O    -4.712000000    -3.126000000     1.791000000
H    -4.260000000    -3.347000000     2.605000000
H    -4.442000000    -2.227000000     1.604000000
O    -1.250000000     4.419000000    -4.987000000
H    -0.748000000     3.697000000    -4.608000000
H    -0.666000000     4.797000000    -5.644000000
O     0.394000000     3.024000000    -6.721000000
H    -0.544000000     3.150000000    -6.863000000
H     0.476000000     2.873000000    -5.780000000
O    -3.729000000    -3.565000000     4.434000000
H    -4.184000000    -4.333000000     4.778000000
H    -2.831000000    -3.862000000     4.291000000
O    -2.397000000     0.927000000     6.848000000
H    -3.075000000     1.575000000     7.039000000
H    -2.878000000     0.160000000     6.538000000
O    -5.069000000    -0.813000000    -2.987000000
H    -5.161000000    -1.510000000    -2.338000000
H    -4.135000000    -0.603000000    -2.983000000
O     4.423000000     4.191000000    -2.175000000
H     4.628000000     3.797000000    -1.327000000
H     3.643000000     3.723000000    -2.475000000
O    -1.039000000    -0.997000000    -4.842000000
H    -1.529000000    -1.405000000    -5.556000000
H    -1.526000000    -1.232000000    -4.053000000
O     1.206000000     4.268000000    -0.072000000
H     1.323000000     3.438000000    -0.534000000
H     0.884000000     4.017000000     0.794000000
O    -3.476000000     4.189000000    -1.839000000
H    -3.023000000     3.638000000    -2.477000000
H    -3.717000000     3.589000000    -1.133000000
O    -6.328000000    -0.995000000     3.724000000
H    -6.762000000    -1.782000000     3.393000000
H    -6.214000000    -0.442000000     2.952000000
O    -4.089000000    -0.511000000     0.899000000
H    -4.622000000     0.120000000     0.414000000
H    -3.411000000     0.019000000     1.318000000
O     1.449000000    -4.001000000     5.035000000
H     2.292000000    -4.381000000     5.283000000
H     1.644000000    -3.080000000     4.861000000
O     2.410000000     5.956000000    -3.187000000
H     3.313000000     5.691000000    -3.013000000
H     2.098000000     5.330000000    -3.841000000
O     5.935000000    -3.285000000     2.751000000
H     5.446000000    -2.546000000     2.389000000
H     5.592000000    -4.050000000     2.288000000
O     4.850000000    -1.307000000     1.235000000
H     4.401000000    -0.577000000     1.662000000
H     4.882000000    -1.061000000     0.311000000
O     1.213000000    -4.832000000    -0.028000000
H     0.747000000    -4.340000000    -0.703000000
H     0.753000000    -4.620000000     0.784000000
O    -0.687000000     3.914000000     3.137000000
H    -1.633000000     4.026000000     3.040000000
H    -0.310000000     4.692000000     2.725000000
O     4.742000000    -0.950000000    -1.474000000
H     4.881000000    -1.544000000    -2.211000000
H     4.241000000    -0.223000000    -1.843000000
O     2.877000000    -1.603000000     4.699000000
H     3.754000000    -1.490000000     4.334000000
H     2.440000000    -0.767000000     4.536000000
O     4.041000000     2.655000000    -5.979000000
H     3.946000000     2.120000000    -6.767000000
H     4.625000000     2.148000000    -5.415000000
O    -1.173000000    -4.463000000     4.527000000
H    -1.665000000    -4.849000000     5.252000000
H    -0.313000000    -4.267000000     4.899000000
O     1.849000000    -3.428000000    -2.469000000
H     0.998000000    -3.032000000    -2.283000000
H     1.662000000    -4.103000000    -3.122000000
O    -4.715000000     2.148000000    -0.075000000
H    -5.219000000     1.816000000    -0.818000000
H    -5.376000000     2.425000000     0.559000000
O     5.053000000     1.309000000    -3.851000000
H     5.858000000     1.778000000    -3.632000000
H     4.459000000     1.502000000    -3.125000000
O     1.149000000     0.727000000     5.128000000
H     0.457000000     1.081000000     5.686000000
H     1.277000000     1.394000000     4.453000000
O    -5.214000000     1.922000000    -2.550000000
H    -5.339000000     1.008000000    -2.806000000
H    -4.487000000     2.225000000    -3.093000000
O     2.013000000     3.748000000    -4.632000000
H     2.635000000     3.379000000    -5.260000000
H     2.273000000     3.373000000    -3.791000000
O    -2.929000000     2.185000000    -3.891000000
H    -2.155000000     1.740000000    -3.546000000
H    -2.615000000     2.643000000    -4.670000000
O    -2.368000000    -6.446000000     1.726000000
H    -2.678000000    -7.340000000     1.871000000
H    -3.135000000    -5.896000000     1.888000000
O     1.071000000     1.875000000     2.261000000
H     0.558000000     1.176000000     1.855000000
H     0.445000000     2.339000000     2.817000000
O    -0.700000000     7.117000000    -2.772000000
H    -0.518000000     6.198000000    -2.967000000
H    -1.650000000     7.195000000    -2.855000000
O     7.353000000    -0.478000000    -2.310000000
H     7.737000000     0.351000000    -2.025000000
H     6.514000000    -0.524000000    -1.851000000
O    -2.374000000    -0.722000000    -2.280000000
H    -1.943000000    -1.572000000    -2.190000000
H    -1.925000000    -0.158000000    -1.650000000
O     3.672000000     1.033000000     2.488000000
H     2.778000000     1.337000000     2.328000000
H     3.850000000     1.281000000     3.395000000
O     5.091000000     2.047000000    -0.264000000
H     4.495000000     1.616000000    -0.877000000
H     4.643000000     1.997000000     0.581000000
