158
-3020.24184
C     0.384000000     0.984000000    -1.036000000
H     0.535000000     1.758000000    -1.783000000
C    -0.622000000     1.142000000    -0.119000000
H    -1.253000000     2.026000000    -0.087000000
C    -0.903000000     0.131000000     0.816000000
H    -1.679000000     0.333000000     1.514000000
C    -0.192000000    -1.075000000     0.817000000
H    -0.382000000    -1.805000000     1.600000000
C     0.896000000    -1.249000000    -0.071000000
H     1.530000000    -2.123000000     0.057000000
C     1.171000000    -0.248000000    -0.937000000
C     2.224000000    -0.421000000    -2.029000000
O     2.863000000     0.481000000    -2.476000000
O     2.483000000    -1.542000000    -2.479000000
O     5.997000000     2.270000000    -3.112000000
H     6.862000000     2.679000000    -3.109000000
H     5.551000000     2.658000000    -3.865000000
O     4.051000000     0.925000000    -4.676000000
H     3.627000000     0.810000000    -3.825000000
H     4.696000000     0.219000000    -4.719000000
O     0.731000000     0.226000000     6.604000000
H    -0.153000000    -0.139000000     6.640000000
H     1.027000000     0.051000000     5.711000000
O    -4.702000000     2.118000000     2.808000000
H    -5.113000000     1.298000000     3.083000000
H    -4.818000000     2.137000000     1.858000000
O    -7.378000000     3.068000000     0.582000000
H    -7.536000000     2.125000000     0.628000000
H    -6.426000000     3.149000000     0.530000000
O    -2.712000000    -1.405000000    -2.419000000
H    -3.596000000    -1.040000000    -2.444000000
H    -2.698000000    -1.946000000    -1.629000000
O    -0.727000000     1.436000000     3.624000000
H    -1.450000000     1.566000000     3.010000000
H    -1.047000000     1.797000000     4.450000000
O    -1.169000000     6.315000000    -1.906000000
H    -1.127000000     6.428000000    -2.856000000
H    -1.227000000     7.205000000    -1.561000000
O    -2.254000000    -4.171000000     2.409000000
H    -1.941000000    -3.492000000     3.007000000
H    -2.564000000    -3.689000000     1.642000000
O     4.612000000     1.626000000    -0.932000000
H     4.956000000     2.265000000    -1.556000000
H     3.892000000     1.200000000    -1.397000000
O    -0.595000000    -6.336000000     2.470000000
H    -1.166000000    -5.592000000     2.662000000
H    -0.701000000    -6.919000000     3.222000000
O     2.900000000     4.411000000     0.786000000
H     3.641000000     4.569000000     1.371000000
H     2.321000000     3.832000000     1.282000000
O     2.219000000     2.930000000    -3.172000000
H     1.691000000     2.665000000    -3.925000000
H     2.431000000     2.109000000    -2.728000000
O    -3.547000000     1.502000000    -2.182000000
H    -2.693000000     1.306000000    -1.796000000
H    -3.429000000     2.350000000    -2.608000000
O     1.561000000     0.693000000    -6.662000000
H     1.123000000    -0.100000000    -6.351000000
H     2.336000000     0.773000000    -6.106000000
O    -5.048000000    -2.837000000    -0.550000000
H    -5.779000000    -3.214000000    -0.060000000
H    -4.913000000    -3.441000000    -1.280000000
O     1.458000000     3.166000000     5.225000000
H     1.456000000     2.321000000     4.775000000
H     0.739000000     3.105000000     5.854000000
O    -2.830000000    -2.217000000     0.574000000
H    -2.797000000    -1.261000000     0.549000000
H    -3.750000000    -2.430000000     0.419000000
O    -0.131000000     1.714000000    -4.215000000
H     0.017000000     0.782000000    -4.375000000
H    -1.081000000     1.819000000    -4.271000000
O    -2.856000000     1.261000000    -4.871000000
H    -3.739000000     1.620000000    -4.954000000
H    -2.922000000     0.624000000    -4.159000000
O    -5.127000000    -3.039000000     4.358000000
H    -5.762000000    -3.222000000     5.051000000
H    -5.419000000    -3.574000000     3.619000000
O     1.495000000    -0.190000000     4.178000000
H     0.746000000     0.264000000     3.793000000
H     2.255000000     0.172000000     3.721000000
O    -2.331000000    -4.576000000    -2.802000000
H    -2.080000000    -5.043000000    -3.599000000
H    -1.588000000    -4.002000000    -2.616000000
O     0.795000000     2.741000000     1.920000000
H     0.252000000     2.545000000     2.683000000
H     0.568000000     2.063000000     1.283000000
O    -2.020000000     3.639000000    -2.702000000
H    -2.346000000     4.353000000    -2.154000000
H    -1.206000000     3.978000000    -3.076000000
O     0.572000000     6.162000000     0.510000000
H     0.277000000     5.687000000    -0.267000000
H     1.418000000     5.768000000     0.724000000
O    -4.843000000     3.080000000    -0.274000000
H    -4.518000000     3.957000000    -0.480000000
H    -4.273000000     2.491000000    -0.768000000
O     5.011000000    -2.523000000    -6.787000000
H     4.240000000    -2.377000000    -7.335000000
H     4.722000000    -2.301000000    -5.902000000
O     2.587000000     5.185000000    -1.772000000
H     2.430000000     4.419000000    -2.324000000
H     2.892000000     4.822000000    -0.940000000
O     3.824000000    -5.022000000    -2.877000000
H     4.487000000    -5.626000000    -3.213000000
H     4.220000000    -4.646000000    -2.091000000
O     6.442000000    -0.397000000    -0.657000000
H     6.032000000    -1.249000000    -0.511000000
H     5.707000000     0.203000000    -0.787000000
O    -1.086000000     3.060000000     6.331000000
H    -1.913000000     3.541000000     6.297000000
H    -1.140000000     2.546000000     7.136000000
O     4.987000000    -1.594000000    -3.646000000
H     4.064000000    -1.349000000    -3.714000000
H     5.094000000    -1.871000000    -2.736000000
O     4.442000000    -3.098000000     1.807000000
H     5.147000000    -2.550000000     2.150000000
H     4.772000000    -3.993000000     1.890000000
O    -0.810000000    -2.061000000     3.916000000
H    -1.694000000    -1.698000000     3.865000000
H    -0.239000000    -1.294000000     3.967000000
O     4.304000000    -2.589000000    -1.048000000
H     3.949000000    -2.655000000    -0.161000000
H     3.596000000    -2.201000000    -1.562000000
O     1.363000000    -3.888000000    -2.123000000
H     2.075000000    -4.513000000    -2.262000000
H     1.762000000    -3.032000000    -2.280000000
O    -1.375000000    -2.032000000    -4.681000000
H    -1.931000000    -2.725000000    -5.035000000
H    -1.879000000    -1.668000000    -3.953000000
O    -2.643000000     4.172000000     3.623000000
H    -2.590000000     4.746000000     2.859000000
H    -3.337000000     3.549000000     3.407000000
O    -4.443000000     0.131000000     0.185000000
H    -4.931000000     0.699000000    -0.410000000
H    -4.990000000    -0.649000000     0.275000000
O     7.833000000     0.067000000    -3.256000000
H     7.679000000    -0.553000000    -2.543000000
H     6.982000000     0.481000000    -3.401000000
O    -3.174000000    -1.065000000     4.422000000
H    -3.685000000    -1.872000000     4.491000000
H    -3.799000000    -0.413000000     4.107000000
O     1.562000000    -3.760000000     4.025000000
H     0.663000000    -3.462000000     4.164000000
H     2.028000000    -2.981000000     3.723000000
O    -5.684000000    -0.086000000     3.698000000
H    -5.638000000    -1.035000000     3.813000000
H    -6.593000000     0.136000000     3.899000000
O    -1.888000000    -0.638000000     7.131000000
H    -2.311000000    -0.901000000     6.313000000
H    -1.969000000    -1.404000000     7.699000000
O     1.459000000    -6.180000000    -0.569000000
H     1.038000000    -5.572000000    -1.177000000
H     0.939000000    -6.116000000     0.232000000
O     4.815000000     2.444000000     1.560000000
H     5.463000000     2.999000000     1.127000000
H     4.411000000     1.947000000     0.849000000
O     1.015000000    -1.368000000    -5.156000000
H     1.535000000    -1.601000000    -4.387000000
H     0.115000000    -1.581000000    -4.910000000
