158
-3051.93881
C     0.398000000     1.177000000    -0.860000000
H     0.291000000     2.066000000    -1.476000000
C    -0.406000000     1.209000000     0.332000000
H    -0.926000000     2.123000000     0.604000000
C    -0.617000000     0.044000000     1.056000000
H    -1.377000000     0.039000000     1.823000000
C    -0.120000000    -1.181000000     0.605000000
H    -0.570000000    -2.072000000     1.034000000
C     0.725000000    -1.170000000    -0.548000000
H     1.139000000    -2.106000000    -0.914000000
C     0.970000000    -0.007000000    -1.285000000
C     1.764000000    -0.060000000    -2.596000000
O     1.722000000     0.857000000    -3.394000000
O     2.483000000    -1.048000000    -2.708000000
O     4.457000000     2.566000000    -3.769000000
H     4.803000000     1.784000000    -3.339000000
H     3.836000000     2.229000000    -4.415000000
O     2.828000000     0.993000000    -5.799000000
H     2.225000000     1.583000000    -6.251000000
H     2.358000000     0.732000000    -5.006000000
O    -0.229000000    -0.412000000     7.935000000
H     0.066000000    -1.240000000     7.556000000
H    -1.167000000    -0.382000000     7.744000000
O    -6.030000000     1.242000000     2.825000000
H    -6.262000000     0.362000000     3.122000000
H    -5.253000000     1.114000000     2.280000000
O    -1.983000000    -1.205000000    -1.631000000
H    -1.487000000    -1.911000000    -2.046000000
H    -1.321000000    -0.677000000    -1.185000000
O     0.217000000     4.679000000     3.222000000
H    -0.225000000     5.408000000     2.786000000
H     0.291000000     4.955000000     4.135000000
O    -2.001000000     4.997000000    -1.541000000
H    -1.220000000     4.621000000    -1.946000000
H    -1.764000000     5.906000000    -1.359000000
O     3.476000000    -5.536000000     1.416000000
H     3.300000000    -4.971000000     0.663000000
H     2.657000000    -6.013000000     1.553000000
O    -3.165000000    -2.916000000     3.344000000
H    -4.050000000    -3.273000000     3.418000000
H    -3.068000000    -2.707000000     2.415000000
O     6.950000000    -2.961000000    -4.192000000
H     6.754000000    -2.097000000    -3.828000000
H     7.776000000    -2.842000000    -4.661000000
O     4.575000000     4.830000000    -2.222000000
H     4.681000000     4.096000000    -2.827000000
H     3.844000000     5.333000000    -2.581000000
O     0.660000000    -6.575000000     1.730000000
H    -0.086000000    -7.171000000     1.798000000
H     0.286000000    -5.760000000     1.397000000
O     0.407000000     3.113000000    -3.538000000
H     0.628000000     3.665000000    -4.288000000
H     0.948000000     2.331000000    -3.649000000
O     1.431000000    -7.188000000    -1.203000000
H     1.781000000    -6.393000000    -0.802000000
H     1.188000000    -7.743000000    -0.462000000
O    -2.475000000     1.605000000     7.207000000
H    -1.993000000     1.605000000     6.380000000
H    -3.356000000     1.313000000     6.970000000
O    -3.620000000    -2.208000000     0.714000000
H    -4.478000000    -1.900000000     0.422000000
H    -3.033000000    -2.010000000    -0.015000000
O    -2.563000000     2.503000000    -5.369000000
H    -2.171000000     1.630000000    -5.407000000
H    -3.411000000     2.403000000    -5.801000000
O    -1.003000000    -4.773000000     0.187000000
H    -1.682000000    -4.700000000     0.858000000
H    -1.448000000    -5.165000000    -0.564000000
O    -2.059000000     1.606000000     4.459000000
H    -2.574000000     2.316000000     4.073000000
H    -1.186000000     1.710000000     4.080000000
O    -0.578000000    -2.501000000    -4.016000000
H    -1.117000000    -2.723000000    -4.776000000
H     0.002000000    -3.254000000    -3.906000000
O     0.364000000     2.338000000    -6.298000000
H    -0.048000000     1.674000000    -5.745000000
H    -0.079000000     2.255000000    -7.143000000
O     1.289000000     4.657000000     0.521000000
H     0.981000000     4.357000000     1.377000000
H     2.189000000     4.334000000     0.465000000
O    -3.622000000     3.398000000    -2.950000000
H    -2.843000000     3.823000000    -2.592000000
H    -3.419000000     3.266000000    -3.876000000
O    -2.755000000     5.470000000     2.132000000
H    -3.213000000     5.146000000     1.357000000
H    -3.067000000     4.914000000     2.846000000
O    -4.293000000     5.031000000    -0.030000000
H    -4.934000000     5.613000000    -0.439000000
H    -3.595000000     4.949000000    -0.681000000
O     5.897000000    -0.345000000    -5.969000000
H     5.101000000    -0.438000000    -6.493000000
H     5.633000000    -0.598000000    -5.084000000
O     1.571000000     5.089000000    -2.066000000
H     1.259000000     4.386000000    -2.636000000
H     1.430000000     4.759000000    -1.179000000
O     4.215000000    -4.437000000    -4.528000000
H     5.149000000    -4.551000000    -4.700000000
H     4.008000000    -3.576000000    -4.893000000
O     6.127000000    -1.935000000    -0.985000000
H     6.449000000    -2.752000000    -0.603000000
H     5.703000000    -1.481000000    -0.256000000
O     2.225000000     0.291000000     5.080000000
H     2.801000000     0.821000000     5.630000000
H     1.474000000     0.858000000     4.903000000
O     5.166000000    -0.500000000    -3.177000000
H     4.262000000    -0.762000000    -3.002000000
H     5.681000000    -0.956000000    -2.512000000
O     2.341000000    -0.385000000     2.546000000
H     1.946000000     0.470000000     2.374000000
H     2.388000000    -0.439000000     3.501000000
O    -1.335000000    -1.291000000     4.500000000
H    -1.933000000    -0.574000000     4.710000000
H    -1.815000000    -1.827000000     3.870000000
O    -3.040000000    -3.839000000     6.326000000
H    -3.314000000    -3.717000000     5.417000000
H    -2.459000000    -4.599000000     6.301000000
O     3.934000000     0.215000000     0.173000000
H     3.433000000     0.189000000     0.988000000
H     3.469000000    -0.382000000    -0.414000000
O     1.809000000    -3.803000000    -3.391000000
H     2.600000000    -4.141000000    -3.811000000
H     2.078000000    -2.966000000    -3.013000000
O    -2.864000000    -5.486000000     2.560000000
H    -2.815000000    -4.660000000     3.040000000
H    -2.703000000    -6.158000000     3.222000000
O    -1.009000000     0.509000000    -4.640000000
H    -1.059000000    -0.421000000    -4.421000000
H    -0.538000000     0.903000000    -3.905000000
O    -4.344000000     3.214000000     3.727000000
H    -5.092000000     2.756000000     3.342000000
H    -4.729000000     3.967000000     4.174000000
O    -3.725000000     1.298000000     0.323000000
H    -4.170000000     1.662000000    -0.442000000
H    -3.426000000     0.434000000     0.038000000
O     0.258000000     1.729000000     3.496000000
H     0.044000000     1.296000000     2.669000000
H     0.299000000     2.660000000     3.275000000
O    -4.678000000     0.218000000     6.102000000
H    -5.414000000     0.813000000     5.961000000
H    -5.055000000    -0.657000000     6.006000000
O     0.340000000    -2.626000000     6.091000000
H    -0.029000000    -2.185000000     5.325000000
H     1.272000000    -2.412000000     6.065000000
O    -2.847000000    -1.463000000     7.541000000
H    -3.318000000    -0.924000000     6.906000000
H    -2.882000000    -2.348000000     7.177000000
O     1.716000000    -4.549000000    -0.531000000
H     1.674000000    -4.253000000    -1.440000000
H     0.814000000    -4.488000000    -0.218000000
O     3.955000000     4.066000000     0.323000000
H     4.589000000     3.421000000     0.639000000
H     4.395000000     4.494000000    -0.411000000
O     3.404000000    -1.619000000    -5.181000000
H     3.436000000    -0.664000000    -5.235000000
H     2.839000000    -1.797000000    -4.429000000
O    -0.809000000    -0.552000000    -7.346000000
H    -0.525000000    -0.243000000    -6.486000000
H    -0.015000000    -0.536000000    -7.881000000
