158
-3025.09429
C    -0.222000000     1.253000000    -0.704000000
H    -0.574000000     2.075000000    -1.322000000
C    -1.089000000     0.694000000     0.290000000
H    -2.074000000     1.122000000     0.459000000
C    -0.732000000    -0.429000000     0.906000000
H    -1.386000000    -0.822000000     1.722000000
C     0.462000000    -1.037000000     0.540000000
H     0.666000000    -1.967000000     1.063000000
C     1.358000000    -0.494000000    -0.376000000
H     2.250000000    -1.046000000    -0.662000000
C     1.031000000     0.709000000    -1.002000000
C     1.793000000     1.340000000    -2.111000000
O     1.231000000     2.061000000    -2.973000000
O     2.968000000     1.006000000    -2.359000000
O     3.170000000     6.243000000    -3.923000000
H     3.142000000     6.062000000    -2.984000000
H     3.831000000     5.640000000    -4.264000000
O     3.030000000    -2.890000000    -5.563000000
H     2.493000000    -3.463000000    -6.111000000
H     2.755000000    -2.005000000    -5.800000000
O    -3.868000000     0.315000000     4.370000000
H    -4.023000000     0.376000000     3.427000000
H    -3.940000000    -0.620000000     4.564000000
O    -2.793000000    -3.890000000     1.518000000
H    -1.880000000    -3.922000000     1.805000000
H    -2.939000000    -4.733000000     1.088000000
O    -2.961000000     5.956000000    -0.333000000
H    -3.056000000     6.141000000    -1.267000000
H    -3.141000000     5.019000000    -0.254000000
O     0.168000000    -4.597000000    -1.354000000
H     0.193000000    -5.153000000    -2.134000000
H     0.201000000    -5.212000000    -0.621000000
O     3.351000000    -2.969000000    -2.886000000
H     2.410000000    -2.817000000    -2.800000000
H     3.469000000    -3.237000000    -3.797000000
O    -0.582000000    -6.435000000     0.513000000
H    -1.451000000    -6.690000000     0.202000000
H    -0.752000000    -5.914000000     1.298000000
O    -4.038000000     2.838000000     5.566000000
H    -4.816000000     2.660000000     6.094000000
H    -4.053000000     2.167000000     4.884000000
O    -1.155000000     1.727000000    -4.034000000
H    -0.950000000     1.027000000    -4.654000000
H    -0.303000000     2.004000000    -3.696000000
O    -6.856000000    -1.713000000     3.217000000
H    -6.092000000    -2.055000000     3.682000000
H    -6.529000000    -0.941000000     2.755000000
O    -1.397000000     4.284000000    -4.425000000
H    -1.480000000     3.349000000    -4.238000000
H    -0.583000000     4.544000000    -3.993000000
O     0.604000000     2.329000000    -6.634000000
H     0.066000000     3.115000000    -6.534000000
H     1.494000000     2.622000000    -6.438000000
O    -4.370000000    -2.358000000     4.126000000
H    -4.421000000    -3.100000000     4.730000000
H    -3.671000000    -2.594000000     3.517000000
O    -5.385000000    -2.868000000     0.340000000
H    -5.321000000    -3.314000000    -0.505000000
H    -4.557000000    -3.065000000     0.778000000
O    -1.897000000    -4.772000000     5.535000000
H    -2.853000000    -4.752000000     5.490000000
H    -1.702000000    -4.751000000     6.472000000
O     0.467000000     7.039000000    -2.846000000
H     1.129000000     7.105000000    -3.535000000
H     0.426000000     6.104000000    -2.643000000
O     0.367000000     2.376000000     2.431000000
H    -0.542000000     2.122000000     2.270000000
H     0.591000000     1.952000000     3.259000000
O     0.605000000     4.981000000     0.961000000
H    -0.123000000     5.587000000     1.106000000
H     0.411000000     4.235000000     1.529000000
O    -3.900000000     3.421000000    -0.328000000
H    -3.575000000     3.135000000    -1.182000000
H    -4.492000000     2.722000000    -0.050000000
O    -4.687000000     1.068000000     1.902000000
H    -5.295000000     1.050000000     1.163000000
H    -4.937000000     1.848000000     2.398000000
O     4.245000000    -5.018000000    -1.148000000
H     3.411000000    -5.277000000    -0.756000000
H     4.016000000    -4.320000000    -1.761000000
O     2.182000000    -4.957000000     3.826000000
H     2.417000000    -5.306000000     4.686000000
H     1.724000000    -4.138000000     4.017000000
O     0.360000000     4.455000000    -2.056000000
H     0.487000000     4.524000000    -1.110000000
H     0.798000000     3.639000000    -2.297000000
O     6.923000000    -2.188000000    -0.165000000
H     6.794000000    -1.661000000    -0.954000000
H     6.039000000    -2.339000000     0.170000000
O     7.242000000     1.741000000     0.024000000
H     6.655000000     1.962000000    -0.699000000
H     6.766000000     1.077000000     0.523000000
O     5.482000000     0.003000000     1.551000000
H     5.071000000    -0.861000000     1.519000000
H     4.752000000     0.618000000     1.475000000
O     1.912000000    -4.916000000     0.997000000
H     1.317000000    -5.665000000     0.974000000
H     2.189000000    -4.858000000     1.911000000
O     4.911000000    -1.231000000    -1.680000000
H     4.429000000    -2.045000000    -1.825000000
H     4.277000000    -0.540000000    -1.875000000
O     0.092000000    -2.733000000     3.682000000
H     0.797000000    -2.093000000     3.784000000
H    -0.463000000    -2.601000000     4.451000000
O     4.674000000    -3.005000000     1.276000000
H     4.913000000    -3.506000000     2.056000000
H     3.835000000    -3.374000000     1.001000000
O    -0.839000000    -5.227000000     2.863000000
H    -1.227000000    -5.190000000     3.737000000
H    -0.428000000    -4.370000000     2.747000000
O     5.159000000     4.497000000    -4.796000000
H     5.834000000     3.990000000    -4.345000000
H     5.524000000     4.662000000    -5.666000000
O     0.657000000    -2.083000000    -2.811000000
H     0.230000000    -1.257000000    -2.585000000
H     0.162000000    -2.747000000    -2.331000000
O     3.103000000     4.603000000     1.975000000
H     2.354000000     5.166000000     1.778000000
H     3.273000000     4.135000000     1.158000000
O    -6.488000000     2.285000000    -0.291000000
H    -6.906000000     1.512000000    -0.672000000
H    -7.183000000     2.942000000    -0.260000000
O     2.536000000    -0.124000000    -5.316000000
H     1.742000000     0.411000000    -5.284000000
H     2.926000000    -0.027000000    -4.448000000
O    -1.377000000    -1.820000000     5.810000000
H    -1.097000000    -2.568000000     6.337000000
H    -1.169000000    -1.057000000     6.349000000
O    -6.604000000    -0.612000000    -0.979000000
H    -6.167000000    -1.366000000    -0.583000000
H    -7.516000000    -0.885000000    -1.071000000
O     4.421000000     2.510000000    -0.643000000
H     4.095000000     2.072000000     0.143000000
H     4.077000000     1.988000000    -1.368000000
O     2.705000000     2.869000000    -5.142000000
H     3.474000000     3.348000000    -4.833000000
H     2.221000000     2.654000000    -4.344000000
O    -3.629000000     2.256000000    -2.900000000
H    -4.136000000     1.547000000    -3.295000000
H    -2.762000000     2.182000000    -3.297000000
O    -0.706000000     1.098000000     4.591000000
H    -1.122000000     1.951000000     4.715000000
H    -1.355000000     0.468000000     4.901000000
O     7.197000000     0.002000000    -2.636000000
H     7.143000000     0.792000000    -3.173000000
H     6.319000000    -0.097000000    -2.268000000
O    -2.167000000    -2.125000000    -1.963000000
H    -1.845000000    -3.025000000    -1.928000000
H    -1.835000000    -1.720000000    -1.162000000
O     1.888000000    -0.510000000     3.372000000
H     1.388000000    -0.098000000     2.667000000
H     1.669000000     0.001000000     4.151000000
O     5.728000000     4.787000000    -0.073000000
H     5.687000000     4.676000000     0.877000000
H     5.373000000     3.972000000    -0.425000000
O     3.266000000     1.614000000     1.682000000
H     2.818000000     2.345000000     2.107000000
H     3.000000000     0.845000000     2.186000000
