158
-3043.02590
C    -0.286000000     1.409000000    -0.488000000
H    -0.507000000     2.436000000    -0.766000000
C    -0.603000000     0.925000000     0.813000000
H    -1.018000000     1.597000000     1.560000000
C    -0.241000000    -0.453000000     1.121000000
H    -0.464000000    -0.878000000     2.066000000
C     0.218000000    -1.302000000     0.128000000
H     0.454000000    -2.332000000     0.385000000
C     0.681000000    -0.744000000    -1.077000000
H     1.168000000    -1.445000000    -1.750000000
C     0.374000000     0.593000000    -1.439000000
C     0.707000000     1.143000000    -2.827000000
O     0.308000000     2.240000000    -3.106000000
O     1.209000000     0.415000000    -3.622000000
O     4.443000000    -1.045000000    -6.669000000
H     3.576000000    -1.001000000    -6.264000000
H     4.484000000    -0.272000000    -7.232000000
O     0.327000000     1.268000000     6.510000000
H    -0.498000000     1.487000000     6.076000000
H     0.150000000     0.439000000     6.955000000
O    -5.348000000     0.573000000     2.438000000
H    -5.062000000     0.135000000     3.240000000
H    -5.309000000    -0.108000000     1.767000000
O     1.834000000    -4.100000000     2.113000000
H     1.848000000    -3.759000000     3.008000000
H     2.585000000    -3.687000000     1.688000000
O    -0.210000000     6.362000000    -1.500000000
H    -1.126000000     6.392000000    -1.775000000
H     0.129000000     5.552000000    -1.882000000
O    -2.684000000     3.686000000     0.219000000
H    -2.985000000     4.595000000     0.228000000
H    -3.111000000     3.300000000    -0.545000000
O    -2.538000000     1.215000000    -6.148000000
H    -2.634000000     0.717000000    -6.960000000
H    -1.659000000     1.592000000    -6.201000000
O     4.677000000    -3.048000000    -3.933000000
H     4.932000000    -2.939000000    -4.849000000
H     4.124000000    -3.828000000    -3.929000000
O     1.456000000    -0.454000000     4.265000000
H     1.430000000     0.028000000     5.092000000
H     1.481000000     0.227000000     3.593000000
O    -1.424000000    -6.451000000     4.154000000
H    -0.916000000    -6.018000000     3.468000000
H    -2.188000000    -5.888000000     4.278000000
O    -4.236000000    -2.682000000     1.979000000
H    -5.024000000    -3.112000000     1.646000000
H    -3.667000000    -2.600000000     1.214000000
O     0.047000000     5.148000000     1.221000000
H    -0.610000000     4.621000000     0.766000000
H    -0.389000000     5.985000000     1.384000000
O    -1.739000000     3.612000000    -4.185000000
H    -2.066000000     2.897000000    -4.731000000
H    -1.019000000     3.224000000    -3.687000000
O     3.142000000    -0.165000000     0.640000000
H     3.339000000    -0.826000000     1.304000000
H     2.202000000    -0.253000000     0.485000000
O     2.340000000    -1.568000000    -4.925000000
H     2.913000000    -2.027000000    -4.310000000
H     2.039000000    -0.798000000    -4.442000000
O    -1.647000000     2.481000000     4.930000000
H    -2.352000000     2.817000000     4.377000000
H    -2.052000000     2.367000000     5.790000000
O     3.799000000    -5.031000000    -1.547000000
H     4.222000000    -5.818000000    -1.204000000
H     3.721000000    -5.192000000    -2.487000000
O     0.210000000     5.419000000    -5.398000000
H    -0.438000000     4.735000000    -5.228000000
H     0.827000000     5.350000000    -4.670000000
O    -2.692000000    -2.212000000    -0.557000000
H    -2.054000000    -1.519000000    -0.385000000
H    -2.169000000    -2.943000000    -0.887000000
O    -0.660000000    -2.374000000     3.924000000
H     0.147000000    -1.869000000     3.831000000
H    -1.089000000    -2.000000000     4.694000000
O     1.860000000    -2.400000000     7.248000000
H     2.300000000    -2.589000000     6.419000000
H     2.565000000    -2.384000000     7.895000000
O     3.147000000    -3.082000000     4.511000000
H     2.623000000    -2.284000000     4.585000000
H     4.046000000    -2.768000000     4.407000000
O     2.556000000     5.262000000     0.505000000
H     2.848000000     4.395000000     0.225000000
H     1.655000000     5.128000000     0.799000000
O    -2.712000000     5.786000000    -2.275000000
H    -2.400000000     5.294000000    -3.034000000
H    -3.542000000     6.168000000    -2.561000000
O    -0.567000000    -1.243000000     7.526000000
H    -1.190000000    -1.922000000     7.267000000
H     0.281000000    -1.686000000     7.535000000
O    -4.647000000     2.285000000    -0.781000000
H    -5.246000000     2.671000000    -0.142000000
H    -4.532000000     1.382000000    -0.487000000
O     5.718000000     2.195000000    -3.284000000
H     6.399000000     2.163000000    -2.612000000
H     4.922000000     1.915000000    -2.832000000
O     5.135000000    -1.848000000    -1.407000000
H     6.085000000    -1.818000000    -1.297000000
H     5.007000000    -2.217000000    -2.282000000
O     5.124000000     1.748000000     0.174000000
H     4.846000000     2.176000000     0.984000000
H     4.477000000     1.057000000     0.035000000
O     3.913000000    -3.450000000     0.620000000
H     3.708000000    -4.131000000    -0.020000000
H     4.439000000    -2.815000000     0.134000000
O    -3.778000000     2.784000000     2.675000000
H    -3.116000000     2.979000000     2.012000000
H    -4.149000000     1.945000000     2.403000000
O     3.860000000     0.560000000    -2.306000000
H     4.284000000    -0.222000000    -1.952000000
H     2.987000000     0.263000000    -2.564000000
O     2.429000000     1.430000000    -5.618000000
H     2.987000000     2.164000000    -5.360000000
H     1.954000000     1.198000000    -4.820000000
O    -4.170000000    -0.763000000     4.575000000
H    -4.021000000    -1.374000000     3.853000000
H    -4.153000000    -1.310000000     5.360000000
O    -1.202000000    -0.763000000    -4.192000000
H    -0.289000000    -0.480000000    -4.152000000
H    -1.672000000    -0.008000000    -4.546000000
O     1.061000000    -5.422000000    -1.024000000
H     1.410000000    -5.855000000    -0.245000000
H     1.813000000    -5.339000000    -1.610000000
O     3.845000000     3.542000000    -1.198000000
H     4.213000000     2.718000000    -0.877000000
H     4.513000000     4.197000000    -0.996000000
O     1.627000000    -2.143000000    -7.383000000
H     1.525000000    -1.222000000    -7.623000000
H     1.715000000    -2.133000000    -6.430000000
O    -1.315000000    -4.210000000    -1.441000000
H    -0.479000000    -4.672000000    -1.492000000
H    -1.902000000    -4.824000000    -0.999000000
O    -0.126000000     2.317000000    -6.448000000
H    -0.026000000     2.599000000    -7.357000000
H     0.726000000     1.947000000    -6.217000000
O     0.979000000     4.070000000     4.470000000
H     1.184000000     3.855000000     3.560000000
H     0.178000000     3.581000000     4.657000000
O    -3.260000000    -5.486000000     0.327000000
H    -2.780000000    -5.037000000     1.023000000
H    -2.739000000    -6.268000000     0.142000000
O     1.952000000     2.182000000     2.222000000
H     1.947000000     1.675000000     1.410000000
H     2.850000000     2.109000000     2.544000000
O    -0.862000000    -4.703000000     2.265000000
H     0.053000000    -4.620000000     1.995000000
H    -0.969000000    -4.047000000     2.953000000
O    -2.540000000    -3.448000000    -3.910000000
H    -2.007000000    -3.848000000    -3.223000000
H    -2.225000000    -2.546000000    -3.963000000
O     1.823000000     4.518000000    -3.024000000
H     1.334000000     3.725000000    -2.807000000
H     2.565000000     4.516000000    -2.420000000
O     3.401000000     1.029000000    -8.480000000
H     3.018000000     1.161000000    -7.613000000
H     2.729000000     0.553000000    -8.969000000
O     2.051000000    -6.626000000     1.456000000
H     2.149000000    -5.791000000     1.914000000
H     1.499000000    -7.153000000     2.034000000
