158
-3033.77993
C     1.243000000     0.518000000     0.631000000
H     2.214000000     0.848000000     0.991000000
C     0.899000000     0.756000000    -0.708000000
H     1.561000000     1.403000000    -1.279000000
C    -0.304000000     0.208000000    -1.193000000
H    -0.636000000     0.413000000    -2.191000000
C    -1.069000000    -0.622000000    -0.388000000
H    -1.981000000    -1.015000000    -0.829000000
C    -0.695000000    -0.867000000     0.990000000
H    -1.363000000    -1.460000000     1.611000000
C     0.457000000    -0.322000000     1.469000000
C     0.788000000    -0.641000000     2.912000000
O    -0.027000000    -1.299000000     3.527000000
O     1.812000000    -0.249000000     3.414000000
O    -3.502000000    -3.250000000     7.133000000
H    -3.439000000    -4.186000000     6.944000000
H    -2.992000000    -2.831000000     6.441000000
O     5.616000000     0.121000000    -3.157000000
H     5.376000000    -0.529000000    -2.497000000
H     4.817000000     0.251000000    -3.667000000
O    -6.219000000    -0.835000000     2.965000000
H    -5.900000000    -1.599000000     2.486000000
H    -5.495000000    -0.594000000     3.543000000
O    -4.878000000     0.221000000    -5.828000000
H    -4.936000000    -0.673000000    -6.166000000
H    -4.268000000     0.160000000    -5.093000000
O    -5.288000000    -1.806000000    -0.634000000
H    -4.734000000    -1.993000000    -1.392000000
H    -6.179000000    -1.809000000    -0.983000000
O    -5.120000000     1.121000000    -0.272000000
H    -4.696000000     1.457000000    -1.062000000
H    -4.996000000     0.173000000    -0.318000000
O     4.135000000     0.622000000     6.352000000
H     3.900000000     0.442000000     7.263000000
H     4.151000000     1.577000000     6.293000000
O     0.415000000     1.151000000    -4.907000000
H     0.616000000     0.503000000    -4.232000000
H     0.790000000     1.967000000    -4.576000000
O    -5.481000000     3.013000000    -5.537000000
H    -4.655000000     3.090000000    -5.060000000
H    -5.649000000     2.071000000    -5.574000000
O    -0.292000000    -0.016000000     5.968000000
H     0.600000000     0.328000000     6.024000000
H    -0.342000000    -0.411000000     5.098000000
O    -4.218000000     1.781000000    -2.746000000
H    -3.755000000     2.589000000    -2.969000000
H    -3.772000000     1.102000000    -3.251000000
O     2.666000000     4.422000000    -0.962000000
H     2.558000000     5.363000000    -1.100000000
H     3.520000000     4.338000000    -0.538000000
O     3.799000000     1.906000000    -3.874000000
H     2.951000000     2.235000000    -3.579000000
H     4.247000000     2.677000000    -4.223000000
O     0.434000000    -4.615000000    -1.369000000
H    -0.251000000    -4.505000000    -2.029000000
H    -0.013000000    -5.019000000    -0.625000000
O     1.020000000    -3.957000000     2.325000000
H     1.924000000    -3.698000000     2.143000000
H     0.658000000    -3.226000000     2.825000000
O     2.474000000     2.096000000     3.776000000
H     2.203000000     1.187000000     3.650000000
H     2.973000000     2.086000000     4.592000000
O     3.763000000    -3.644000000     1.766000000
H     3.589000000    -4.438000000     2.272000000
H     4.666000000    -3.414000000     1.985000000
O    -2.304000000    -2.092000000     4.544000000
H    -1.591000000    -1.850000000     3.953000000
H    -2.879000000    -1.326000000     4.552000000
O     7.054000000    -0.464000000     3.886000000
H     6.101000000    -0.473000000     3.978000000
H     7.260000000     0.433000000     3.623000000
O     5.194000000    -0.492000000     1.196000000
H     4.981000000    -0.502000000     2.129000000
H     4.886000000    -1.338000000     0.871000000
O    -0.952000000    -5.236000000     5.281000000
H    -0.480000000    -4.406000000     5.212000000
H    -0.553000000    -5.794000000     4.613000000
O    -1.827000000     0.894000000     7.858000000
H    -2.098000000     0.184000000     8.440000000
H    -1.423000000     0.450000000     7.112000000
O     4.554000000    -1.834000000    -1.707000000
H     5.293000000    -2.177000000    -1.204000000
H     3.953000000    -2.574000000    -1.783000000
O    -0.078000000     1.262000000    -7.707000000
H     0.744000000     0.822000000    -7.925000000
H    -0.105000000     1.259000000    -6.750000000
O    -1.005000000    -5.194000000     1.128000000
H    -1.692000000    -5.040000000     1.777000000
H    -0.262000000    -4.675000000     1.438000000
O     5.338000000     1.803000000    -0.935000000
H     5.365000000     1.483000000    -1.837000000
H     4.847000000     1.133000000    -0.458000000
O    -1.517000000     2.469000000     1.546000000
H    -1.469000000     1.764000000     0.901000000
H    -0.648000000     2.870000000     1.527000000
O    -2.926000000     4.034000000    -0.285000000
H    -2.984000000     3.449000000     0.471000000
H    -2.239000000     4.658000000    -0.053000000
O    -1.383000000    -4.704000000    -3.614000000
H    -1.257000000    -4.086000000    -4.333000000
H    -1.491000000    -5.553000000    -4.044000000
O    -2.556000000     2.298000000     4.425000000
H    -1.953000000     2.539000000     5.129000000
H    -2.077000000     2.497000000     3.621000000
O     1.163000000     3.156000000    -3.229000000
H     0.379000000     3.683000000    -3.072000000
H     1.813000000     3.508000000    -2.622000000
O    -0.915000000     4.654000000    -2.523000000
H    -0.341000000     5.401000000    -2.351000000
H    -1.595000000     4.715000000    -1.852000000
O    -5.361000000    -3.207000000     1.830000000
H    -5.270000000    -2.850000000     0.946000000
H    -4.484000000    -3.516000000     2.055000000
O    -3.198000000    -0.486000000    -3.718000000
H    -2.257000000    -0.614000000    -3.835000000
H    -3.454000000    -1.155000000    -3.083000000
O    -4.284000000     0.087000000     4.504000000
H    -3.543000000     0.670000000     4.340000000
H    -4.777000000     0.516000000     5.203000000
O    -3.583000000    -3.215000000    -2.823000000
H    -4.059000000    -4.006000000    -3.075000000
H    -2.694000000    -3.356000000    -3.151000000
O    -3.563000000    -4.782000000    -0.338000000
H    -3.564000000    -4.296000000    -1.162000000
H    -2.693000000    -4.628000000     0.030000000
O    -3.050000000    -4.919000000     2.850000000
H    -2.604000000    -4.529000000     3.601000000
H    -3.628000000    -5.579000000     3.231000000
O     3.327000000    -2.912000000     5.754000000
H     4.171000000    -3.353000000     5.659000000
H     3.431000000    -2.090000000     5.275000000
O    -3.147000000     4.102000000    -4.011000000
H    -2.357000000     3.995000000    -3.481000000
H    -3.432000000     4.999000000    -3.837000000
O    -0.364000000    -3.726000000    -6.014000000
H     0.514000000    -4.099000000    -5.933000000
H    -0.618000000    -3.906000000    -6.920000000
O     1.801000000    -1.360000000    -2.608000000
H     2.750000000    -1.293000000    -2.509000000
H     1.450000000    -1.012000000    -1.788000000
O     0.469000000    -3.116000000     5.530000000
H     1.412000000    -3.267000000     5.470000000
H     0.299000000    -2.410000000     4.907000000
O    -0.846000000    -1.805000000    -3.976000000
H     0.054000000    -1.720000000    -3.661000000
H    -0.769000000    -2.302000000    -4.790000000
O     1.111000000     3.548000000     1.768000000
H     1.579000000     2.814000000     2.166000000
H     1.579000000     3.715000000     0.950000000
O     4.290000000    -0.480000000     3.939000000
H     4.347000000    -0.003000000     4.766000000
H     3.373000000    -0.396000000     3.676000000
O     5.071000000     4.094000000     0.273000000
H     5.212000000     3.219000000    -0.088000000
H     5.198000000     3.988000000     1.216000000
O    -0.514000000     4.558000000    -5.842000000
H    -1.307000000     4.033000000    -5.735000000
H    -0.679000000     5.349000000    -5.329000000
