158
-3036.66490
C    -1.209000000     0.737000000     0.497000000
H    -1.963000000     1.360000000     0.972000000
C    -0.472000000    -0.143000000     1.215000000
H    -0.651000000    -0.347000000     2.267000000
C     0.634000000    -0.794000000     0.672000000
H     1.205000000    -1.472000000     1.222000000
C     0.901000000    -0.648000000    -0.674000000
H     1.685000000    -1.236000000    -1.144000000
C     0.191000000     0.298000000    -1.431000000
H     0.418000000     0.387000000    -2.490000000
C    -0.865000000     0.995000000    -0.863000000
C    -1.570000000     1.984000000    -1.784000000
O    -2.303000000     2.795000000    -1.212000000
O    -1.230000000     2.143000000    -2.930000000
O     1.432000000    -4.249000000     4.983000000
H     1.973000000    -4.731000000     4.357000000
H     2.056000000    -3.899000000     5.619000000
O     3.077000000    -1.779000000    -6.630000000
H     2.950000000    -1.706000000    -5.685000000
H     2.197000000    -1.920000000    -6.980000000
O    -0.517000000    -2.860000000     3.868000000
H     0.036000000    -3.522000000     4.284000000
H     0.075000000    -2.127000000     3.697000000
O    -2.559000000     2.640000000    -5.001000000
H    -2.844000000     3.518000000    -4.747000000
H    -2.009000000     2.346000000    -4.275000000
O     4.568000000    -5.140000000     4.692000000
H     3.987000000    -5.702000000     5.204000000
H     4.235000000    -5.202000000     3.797000000
O     3.707000000    -4.412000000    -2.606000000
H     3.290000000    -5.226000000    -2.323000000
H     4.279000000    -4.674000000    -3.328000000
O     3.825000000     0.636000000    -2.443000000
H     3.764000000     1.186000000    -1.661000000
H     4.042000000     1.246000000    -3.148000000
O     2.766000000    -1.675000000    -3.777000000
H     3.197000000    -2.497000000    -3.542000000
H     2.980000000    -1.078000000    -3.060000000
O     0.211000000    -2.841000000    -3.439000000
H     1.073000000    -2.474000000    -3.636000000
H     0.203000000    -3.686000000    -3.889000000
O    -2.123000000     1.224000000     3.984000000
H    -1.702000000     1.319000000     4.838000000
H    -2.329000000     0.291000000     3.921000000
O    -2.884000000    -1.260000000     3.610000000
H    -3.366000000    -1.594000000     2.853000000
H    -2.473000000    -2.035000000     3.993000000
O    -3.440000000     6.417000000     0.398000000
H    -4.157000000     6.438000000     1.032000000
H    -3.844000000     6.680000000    -0.429000000
O     4.568000000    -1.889000000    -0.833000000
H     5.046000000    -2.354000000    -0.146000000
H     4.211000000    -2.582000000    -1.388000000
O    -4.825000000     5.525000000    -3.112000000
H    -4.990000000     5.182000000    -3.990000000
H    -3.912000000     5.302000000    -2.935000000
O    -3.379000000    -2.226000000     1.178000000
H    -2.758000000    -1.791000000     0.594000000
H    -2.857000000    -2.889000000     1.631000000
O     0.089000000     3.128000000     2.881000000
H    -0.534000000     2.452000000     3.149000000
H    -0.355000000     3.597000000     2.175000000
O     6.721000000    -1.593000000    -2.711000000
H     7.008000000    -0.719000000    -2.449000000
H     5.904000000    -1.731000000    -2.231000000
O     1.170000000     2.835000000    -3.607000000
H     0.223000000     2.750000000    -3.500000000
H     1.428000000     2.049000000    -4.088000000
O     1.362000000    -0.847000000     5.425000000
H     0.495000000    -1.012000000     5.796000000
H     1.605000000     0.016000000     5.758000000
O    -1.375000000     7.922000000    -1.991000000
H    -2.234000000     8.267000000    -1.750000000
H    -1.502000000     6.974000000    -2.042000000
O    -4.658000000    -0.496000000     5.439000000
H    -4.323000000     0.277000000     5.892000000
H    -4.012000000    -0.670000000     4.754000000
O     5.279000000     0.268000000     1.558000000
H     4.554000000     0.783000000     1.203000000
H     5.101000000    -0.626000000     1.268000000
O     6.367000000     0.545000000    -1.177000000
H     5.491000000     0.550000000    -1.562000000
H     6.215000000     0.599000000    -0.233000000
O    -4.335000000     1.358000000    -6.710000000
H    -4.503000000     2.157000000    -7.211000000
H    -3.536000000     1.548000000    -6.218000000
O    -0.800000000    -2.879000000     7.084000000
H    -1.688000000    -3.186000000     7.268000000
H    -0.706000000    -2.971000000     6.136000000
O    -4.768000000     1.827000000    -1.459000000
H    -4.466000000     0.946000000    -1.681000000
H    -3.966000000     2.315000000    -1.272000000
O    -3.812000000     3.555000000     4.516000000
H    -3.019000000     3.042000000     4.359000000
H    -4.526000000     2.922000000     4.439000000
O     4.663000000    -2.627000000     2.664000000
H     4.231000000    -3.475000000     2.766000000
H     4.605000000    -2.223000000     3.530000000
O     0.932000000     0.691000000    -5.372000000
H     1.519000000     0.343000000    -6.043000000
H     0.236000000     1.125000000    -5.866000000
O     2.642000000     4.248000000    -1.721000000
H     2.253000000     3.668000000    -2.375000000
H     1.893000000     4.651000000    -1.282000000
O     4.061000000     2.422000000    -0.454000000
H     3.600000000     3.202000000    -0.765000000
H     3.449000000     2.008000000     0.154000000
O     2.695000000     1.056000000     1.212000000
H     2.212000000     1.172000000     2.030000000
H     2.184000000     0.412000000     0.721000000
O     2.265000000     3.568000000     4.297000000
H     2.168000000     4.476000000     4.583000000
H     1.537000000     3.429000000     3.691000000
O    -2.393000000     5.128000000    -2.543000000
H    -1.636000000     5.091000000    -3.128000000
H    -2.366000000     4.301000000    -2.062000000
O     6.483000000    -3.255000000     0.710000000
H     7.023000000    -2.511000000     0.977000000
H     5.845000000    -3.354000000     1.417000000
O    -1.919000000    -0.551000000    -3.796000000
H    -1.561000000     0.312000000    -3.588000000
H    -1.150000000    -1.091000000    -3.978000000
O    -0.536000000     5.468000000    -4.622000000
H     0.170000000     5.938000000    -4.178000000
H    -1.058000000     6.155000000    -5.036000000
O    -7.288000000     3.240000000    -1.164000000
H    -7.188000000     3.149000000    -0.217000000
H    -6.442000000     2.970000000    -1.522000000
O     0.652000000     5.895000000    -0.057000000
H     0.014000000     5.409000000     0.465000000
H     1.229000000     6.304000000     0.588000000
O    -0.891000000     1.934000000    -7.026000000
H    -1.564000000     2.007000000    -6.350000000
H    -1.349000000     2.137000000    -7.842000000
O    -4.065000000    -0.798000000    -2.230000000
H    -3.355000000    -0.719000000    -2.868000000
H    -4.371000000    -1.700000000    -2.323000000
O     3.368000000    -5.051000000     2.298000000
H     3.931000000    -5.702000000     1.878000000
H     2.550000000    -5.086000000     1.802000000
O    -1.683000000    -4.201000000    -1.992000000
H    -1.867000000    -4.672000000    -2.805000000
H    -1.039000000    -3.538000000    -2.239000000
O     1.324000000    -6.358000000    -0.522000000
H     0.686000000    -5.737000000    -0.171000000
H     1.952000000    -6.484000000     0.190000000
O    -2.322000000    -4.708000000     0.814000000
H    -2.082000000    -5.634000000     0.775000000
H    -2.120000000    -4.371000000    -0.059000000
O     0.669000000    -4.933000000     1.940000000
H     0.365000000    -5.569000000     2.587000000
H    -0.108000000    -4.414000000     1.730000000
O    -1.673000000     4.361000000     1.122000000
H    -1.911000000     3.669000000     0.505000000
H    -2.234000000     5.098000000     0.883000000
O     0.755000000     4.533000000    -6.729000000
H     0.228000000     3.842000000    -7.130000000
H     0.291000000     4.747000000    -5.919000000
