158
-3041.72354
C    -0.623000000     1.312000000    -0.387000000
H    -1.206000000     2.222000000    -0.503000000
C    -0.517000000     0.772000000     0.916000000
H    -1.006000000     1.317000000     1.719000000
C    -0.078000000    -0.501000000     1.129000000
H    -0.159000000    -0.901000000     2.086000000
C     0.623000000    -1.125000000     0.127000000
H     1.022000000    -2.132000000     0.218000000
C     0.809000000    -0.489000000    -1.126000000
H     1.228000000    -1.007000000    -1.984000000
C     0.159000000     0.726000000    -1.407000000
C     0.151000000     1.284000000    -2.812000000
O    -0.224000000     2.398000000    -3.094000000
O     0.616000000     0.571000000    -3.643000000
O    -1.475000000    -3.134000000    -2.915000000
H    -2.254000000    -3.208000000    -3.466000000
H    -0.885000000    -2.565000000    -3.410000000
O     3.255000000     0.029000000     6.912000000
H     2.871000000    -0.204000000     6.067000000
H     3.370000000    -0.808000000     7.362000000
O    -3.988000000     0.713000000     3.678000000
H    -4.525000000     0.102000000     4.181000000
H    -3.094000000     0.551000000     3.979000000
O    -1.681000000    -0.057000000     7.211000000
H    -1.958000000     0.849000000     7.345000000
H    -1.775000000    -0.466000000     8.071000000
O     3.122000000    -3.285000000     3.415000000
H     3.883000000    -3.656000000     3.860000000
H     3.490000000    -2.659000000     2.791000000
O    -3.809000000     3.435000000    -0.614000000
H    -3.874000000     2.481000000    -0.674000000
H    -3.380000000     3.697000000    -1.429000000
O    -0.830000000     1.006000000    -5.790000000
H    -0.981000000     1.924000000    -6.016000000
H    -0.220000000     1.038000000    -5.053000000
O     2.469000000    -3.583000000    -4.300000000
H     3.386000000    -3.456000000    -4.058000000
H     2.427000000    -4.486000000    -4.615000000
O    -1.257000000     4.055000000     5.127000000
H    -0.638000000     3.361000000     5.352000000
H    -0.705000000     4.797000000     4.879000000
O     0.185000000    -6.380000000     4.507000000
H    -0.109000000    -5.480000000     4.365000000
H     0.340000000    -6.723000000     3.627000000
O    -1.305000000    -3.258000000     4.027000000
H    -2.167000000    -3.581000000     4.289000000
H    -0.725000000    -3.518000000     4.742000000
O    -0.921000000     6.034000000    -0.636000000
H    -1.213000000     5.845000000     0.256000000
H    -1.566000000     5.601000000    -1.196000000
O    -2.278000000     4.106000000    -2.855000000
H    -2.676000000     4.161000000    -3.724000000
H    -1.596000000     3.441000000    -2.945000000
O    -1.201000000    -4.537000000     1.505000000
H    -1.220000000    -3.899000000     2.219000000
H    -0.274000000    -4.754000000     1.402000000
O     1.845000000     3.277000000     0.573000000
H     1.549000000     2.376000000     0.444000000
H     1.849000000     3.657000000    -0.306000000
O     2.830000000     1.082000000    -5.146000000
H     1.965000000     0.937000000    -4.763000000
H     3.018000000     0.275000000    -5.626000000
O     0.706000000     2.187000000     6.232000000
H     0.813000000     1.260000000     6.449000000
H     1.335000000     2.639000000     6.795000000
O    -0.907000000    -3.654000000    -6.046000000
H    -0.393000000    -3.132000000    -5.431000000
H    -0.416000000    -4.470000000    -6.138000000
O    -2.615000000    -1.705000000    -0.393000000
H    -2.534000000    -2.030000000    -1.289000000
H    -1.712000000    -1.594000000    -0.095000000
O    -1.552000000    -0.328000000     4.500000000
H    -1.475000000    -0.328000000     5.454000000
H    -1.062000000    -1.100000000     4.219000000
O     4.730000000    -2.151000000     0.925000000
H     4.217000000    -1.406000000     0.611000000
H     5.315000000    -1.778000000     1.584000000
O    -3.879000000     6.491000000    -1.484000000
H    -4.031000000     5.546000000    -1.460000000
H    -4.193000000     6.805000000    -0.636000000
O     1.262000000     5.120000000     2.600000000
H     1.154000000     4.414000000     1.963000000
H     0.412000000     5.560000000     2.616000000
O     1.184000000    -1.579000000     5.084000000
H     0.806000000    -2.291000000     5.600000000
H     1.975000000    -1.957000000     4.699000000
O    -2.860000000     0.500000000    -3.739000000
H    -2.983000000    -0.334000000    -4.192000000
H    -2.253000000     0.987000000    -4.296000000
O    -3.815000000     3.495000000     4.395000000
H    -2.906000000     3.781000000     4.487000000
H    -3.756000000     2.552000000     4.244000000
O     3.463000000    -1.160000000    -6.393000000
H     3.895000000    -1.934000000    -6.032000000
H     3.249000000    -1.404000000    -7.293000000
O     4.341000000     2.543000000    -3.246000000
H     3.784000000     1.919000000    -3.711000000
H     3.758000000     3.272000000    -3.034000000
O     5.962000000     1.113000000    -1.537000000
H     5.432000000     1.755000000    -2.010000000
H     5.338000000     0.660000000    -0.969000000
O     3.879000000     0.294000000     0.015000000
H     3.980000000     0.748000000     0.851000000
H     3.003000000     0.537000000    -0.284000000
O    -3.962000000     4.920000000     1.586000000
H    -4.147000000     4.358000000     2.338000000
H    -4.052000000     4.343000000     0.827000000
O     4.093000000     2.419000000     1.870000000
H     4.218000000     2.455000000     2.819000000
H     3.296000000     2.925000000     1.714000000
O    -0.061000000     3.499000000    -5.685000000
H     0.820000000     3.869000000    -5.742000000
H    -0.111000000     3.135000000    -4.801000000
O    -4.724000000    -2.304000000     2.551000000
H    -3.935000000    -1.811000000     2.329000000
H    -5.445000000    -1.710000000     2.341000000
O     0.348000000    -1.843000000    -4.612000000
H     0.423000000    -0.930000000    -4.336000000
H     1.251000000    -2.158000000    -4.645000000
O     2.781000000     4.561000000    -5.347000000
H     3.164000000     5.082000000    -4.642000000
H     3.354000000     4.716000000    -6.098000000
O    -3.589000000     0.849000000    -1.199000000
H    -3.062000000     0.173000000    -0.772000000
H    -3.358000000     0.783000000    -2.125000000
O    -2.544000000    -1.308000000    -5.862000000
H    -1.701000000    -1.719000000    -5.670000000
H    -2.316000000    -0.476000000    -6.276000000
O     0.804000000    -5.331000000    -2.441000000
H     1.721000000    -5.418000000    -2.701000000
H     0.604000000    -4.404000000    -2.577000000
O     3.554000000    -4.464000000    -0.375000000
H     3.748000000    -3.551000000    -0.162000000
H     2.761000000    -4.663000000     0.124000000
O    -3.313000000     4.485000000    -5.313000000
H    -2.491000000     4.573000000    -5.794000000
H    -3.991000000     4.692000000    -5.956000000
O    -1.256000000     5.642000000     2.387000000
H    -1.280000000     6.565000000     2.637000000
H    -2.172000000     5.410000000     2.238000000
O     1.533000000    -4.980000000     1.712000000
H     1.883000000    -5.844000000     1.930000000
H     1.946000000    -4.389000000     2.343000000
O     0.264000000    -3.742000000     6.452000000
H     0.116000000    -4.659000000     6.218000000
H     0.459000000    -3.763000000     7.389000000
O    -2.554000000    -5.206000000    -0.624000000
H    -1.887000000    -5.148000000     0.061000000
H    -2.222000000    -4.649000000    -1.329000000
O     1.800000000     4.139000000    -2.062000000
H     1.104000000     3.627000000    -2.473000000
H     1.551000000     5.050000000    -2.217000000
O     4.717000000     2.033000000    -6.916000000
H     4.008000000     1.912000000    -6.284000000
H     5.505000000     2.116000000    -6.379000000
O    -5.960000000     2.488000000     2.207000000
H    -5.385000000     1.754000000     2.424000000
H    -6.615000000     2.494000000     2.905000000
