158
-3050.97269
C     0.717000000     0.387000000     1.246000000
H     1.387000000     0.599000000     2.076000000
C     1.063000000     0.786000000    -0.039000000
H     1.960000000     1.320000000    -0.340000000
C     0.222000000     0.404000000    -1.105000000
H     0.497000000     0.624000000    -2.073000000
C    -0.987000000    -0.341000000    -0.914000000
H    -1.687000000    -0.615000000    -1.698000000
C    -1.224000000    -0.817000000     0.375000000
H    -2.175000000    -1.311000000     0.556000000
C    -0.356000000    -0.530000000     1.434000000
C    -0.610000000    -1.068000000     2.863000000
O    -1.300000000    -2.097000000     2.907000000
O     0.063000000    -0.631000000     3.818000000
O    -0.482000000    -3.063000000     7.395000000
H    -0.594000000    -4.001000000     7.240000000
H    -1.114000000    -2.646000000     6.809000000
O     5.671000000     0.252000000    -3.254000000
H     5.063000000    -0.443000000    -2.999000000
H     5.147000000     1.052000000    -3.221000000
O    -5.164000000     0.930000000     3.199000000
H    -5.308000000     0.014000000     2.960000000
H    -4.726000000     0.890000000     4.049000000
O    -2.768000000     0.046000000    -5.821000000
H    -3.518000000     0.219000000    -5.251000000
H    -2.005000000     0.178000000    -5.259000000
O    -4.609000000    -1.989000000    -0.263000000
H    -4.183000000    -1.860000000    -1.110000000
H    -5.153000000    -1.210000000    -0.147000000
O    -3.292000000     3.200000000    -1.436000000
H    -2.857000000     2.964000000    -2.255000000
H    -2.605000000     3.131000000    -0.772000000
O     4.298000000     0.637000000     5.087000000
H     4.097000000     0.235000000     5.933000000
H     4.415000000     1.566000000     5.285000000
O     1.494000000     2.190000000    -5.662000000
H     1.928000000     1.353000000    -5.827000000
H     1.521000000     2.290000000    -4.710000000
O    -2.935000000     3.164000000    -6.345000000
H    -2.714000000     3.406000000    -5.446000000
H    -3.843000000     3.446000000    -6.453000000
O    -0.729000000     0.352000000     6.086000000
H     0.042000000     0.834000000     6.387000000
H    -0.503000000     0.068000000     5.201000000
O    -1.456000000     2.459000000    -3.648000000
H    -0.898000000     3.027000000    -4.180000000
H    -1.076000000     1.586000000    -3.751000000
O     3.321000000     5.378000000     0.822000000
H     3.490000000     6.231000000     0.423000000
H     3.975000000     4.798000000     0.433000000
O     4.065000000     2.597000000    -2.634000000
H     3.250000000     3.093000000    -2.563000000
H     4.744000000     3.264000000    -2.729000000
O     1.237000000    -2.691000000    -1.418000000
H     0.687000000    -2.894000000    -0.661000000
H     0.668000000    -2.838000000    -2.174000000
O    -0.134000000    -4.000000000     1.239000000
H     0.597000000    -4.150000000     1.838000000
H    -0.735000000    -3.439000000     1.730000000
O     2.857000000     3.750000000     4.110000000
H     3.642000000     4.293000000     4.039000000
H     2.544000000     3.898000000     5.003000000
O    -4.577000000    -3.922000000     6.118000000
H    -4.174000000    -4.695000000     5.724000000
H    -3.943000000    -3.220000000     5.970000000
O     2.387000000    -4.824000000     2.580000000
H     3.246000000    -5.111000000     2.890000000
H     1.783000000    -5.080000000     3.277000000
O    -2.474000000    -2.099000000     5.607000000
H    -2.043000000    -2.254000000     4.767000000
H    -2.550000000    -1.147000000     5.666000000
O    -1.723000000     1.780000000     8.164000000
H    -1.584000000     1.489000000     9.065000000
H    -1.347000000     1.083000000     7.626000000
O     3.545000000    -0.965000000    -2.036000000
H     2.666000000    -1.292000000    -1.843000000
H     3.934000000    -0.803000000    -1.177000000
O    -4.648000000    -0.348000000    -3.939000000
H    -4.191000000    -0.908000000    -3.312000000
H    -4.896000000    -0.938000000    -4.651000000
O    -1.449000000    -6.082000000     0.042000000
H    -2.314000000    -5.696000000     0.182000000
H    -0.837000000    -5.371000000     0.230000000
O    -4.890000000    -5.353000000     3.548000000
H    -4.946000000    -5.948000000     2.800000000
H    -4.558000000    -4.535000000     3.178000000
O     3.571000000     1.523000000     2.641000000
H     3.636000000     0.962000000     3.413000000
H     3.176000000     2.333000000     2.966000000
O    -1.493000000     2.789000000     0.462000000
H    -0.741000000     2.197000000     0.436000000
H    -1.114000000     3.648000000     0.652000000
O    -0.679000000    -2.885000000    -3.503000000
H    -0.120000000    -2.876000000    -4.280000000
H    -0.836000000    -3.814000000    -3.332000000
O    -1.500000000     2.020000000     3.198000000
H    -0.546000000     2.080000000     3.146000000
H    -1.813000000     2.507000000     2.436000000
O     1.211000000     3.526000000    -2.874000000
H     0.762000000     4.312000000    -3.184000000
H     0.789000000     3.322000000    -2.039000000
O    -0.438000000     5.421000000    -0.595000000
H     0.055000000     5.942000000    -1.229000000
H    -1.340000000     5.730000000    -0.681000000
O    -5.843000000    -1.709000000     2.600000000
H    -6.038000000    -1.678000000     1.663000000
H    -5.017000000    -2.189000000     2.657000000
O    -0.542000000    -0.017000000    -4.257000000
H     0.367000000    -0.143000000    -4.529000000
H    -0.771000000    -0.826000000    -3.801000000
O    -3.188000000     0.870000000     5.131000000
H    -2.619000000     1.007000000     4.373000000
H    -2.584000000     0.737000000     5.862000000
O    -3.508000000    -2.429000000    -2.810000000
H    -3.827000000    -3.331000000    -2.851000000
H    -2.594000000    -2.486000000    -3.090000000
O     2.588000000     4.534000000    -6.444000000
H     3.535000000     4.437000000    -6.349000000
H     2.230000000     3.702000000    -6.134000000
O    -3.811000000    -4.579000000    -0.090000000
H    -4.274000000    -4.970000000    -0.831000000
H    -4.091000000    -3.664000000    -0.089000000
O    -3.508000000    -3.383000000     2.417000000
H    -2.654000000    -3.007000000     2.629000000
H    -3.386000000    -3.784000000     1.557000000
O     3.685000000    -2.575000000     6.792000000
H     4.393000000    -2.718000000     6.164000000
H     2.924000000    -2.362000000     6.251000000
O     0.993000000    -3.325000000    -5.675000000
H     1.194000000    -4.049000000    -6.267000000
H     0.795000000    -2.589000000    -6.254000000
O     4.001000000    -1.019000000     0.784000000
H     3.673000000    -0.132000000     0.933000000
H     3.765000000    -1.498000000     1.578000000
O     1.517000000    -2.223000000     5.194000000
H     1.160000000    -3.021000000     4.804000000
H     0.821000000    -1.573000000     5.091000000
O     1.991000000    -0.562000000    -4.469000000
H     2.356000000    -0.400000000    -3.600000000
H     2.524000000    -1.274000000    -4.824000000
O     0.747000000     3.964000000     2.223000000
H     1.227000000     3.673000000     2.998000000
H     1.427000000     4.138000000     1.571000000
O     3.245000000    -2.458000000     3.027000000
H     2.619000000    -2.020000000     3.603000000
H     2.851000000    -3.313000000     2.851000000
O    -0.080000000    -1.435000000    -7.224000000
H     0.167000000    -0.904000000    -7.982000000
H    -0.660000000    -0.870000000    -6.714000000
O     4.940000000     3.219000000     0.618000000
H     4.650000000     2.724000000     1.385000000
H     5.089000000     2.554000000    -0.054000000
O     0.714000000    -4.710000000     4.599000000
H    -0.117000000    -5.110000000     4.854000000
H     1.320000000    -4.948000000     5.301000000
O    -0.571000000     4.682000000    -4.763000000
H    -1.289000000     5.296000000    -4.605000000
H    -0.317000000     4.841000000    -5.672000000
