158
-3035.66827
C    -1.015000000     0.560000000    -0.812000000
H    -1.800000000     1.202000000    -1.204000000
C    -0.721000000     0.868000000     0.500000000
H    -1.250000000     1.641000000     1.051000000
C     0.265000000     0.213000000     1.157000000
H     0.574000000     0.491000000     2.148000000
C     0.942000000    -0.824000000     0.542000000
H     1.765000000    -1.320000000     1.049000000
C     0.686000000    -1.121000000    -0.801000000
H     1.319000000    -1.855000000    -1.292000000
C    -0.291000000    -0.394000000    -1.509000000
C    -0.744000000    -0.694000000    -2.929000000
O    -1.641000000    -0.009000000    -3.414000000
O    -0.429000000    -1.705000000    -3.507000000
O    -1.777000000     3.391000000     6.278000000
H    -1.417000000     4.226000000     5.979000000
H    -1.549000000     2.770000000     5.585000000
O    -3.610000000     3.885000000    -1.935000000
H    -3.124000000     4.210000000    -1.178000000
H    -4.133000000     3.161000000    -1.591000000
O    -4.102000000    -2.993000000    -6.585000000
H    -3.950000000    -3.878000000    -6.916000000
H    -3.479000000    -2.896000000    -5.864000000
O     3.298000000    -1.742000000     5.489000000
H     2.895000000    -1.260000000     6.211000000
H     3.352000000    -1.104000000     4.777000000
O    -1.903000000     1.863000000     4.100000000
H    -2.514000000     2.044000000     3.386000000
H    -1.954000000     0.916000000     4.225000000
O     0.929000000     2.239000000     7.224000000
H     0.111000000     2.705000000     7.396000000
H     1.591000000     2.929000000     7.175000000
O    -1.968000000    -1.486000000     2.013000000
H    -1.296000000    -0.996000000     1.539000000
H    -1.779000000    -2.403000000     1.817000000
O     2.687000000    -3.669000000     3.693000000
H     3.058000000    -3.126000000     4.388000000
H     3.423000000    -4.195000000     3.381000000
O    -0.536000000    -0.627000000     5.220000000
H    -1.166000000    -0.486000000     5.928000000
H     0.224000000    -0.101000000     5.468000000
O    -2.958000000    -2.573000000    -4.265000000
H    -3.439000000    -2.326000000    -3.475000000
H    -2.218000000    -1.966000000    -4.293000000
O     0.395000000    -0.990000000    -6.043000000
H    -0.173000000    -1.517000000    -6.604000000
H     0.197000000    -1.287000000    -5.155000000
O     3.360000000    -0.056000000     2.948000000
H     3.809000000    -0.882000000     2.772000000
H     3.474000000     0.454000000     2.146000000
O     1.397000000     2.888000000    -3.064000000
H     2.022000000     3.611000000    -3.004000000
H     1.837000000     2.236000000    -3.610000000
O     5.248000000     0.484000000     0.751000000
H     6.065000000     0.338000000     0.274000000
H     4.585000000     0.581000000     0.067000000
O    -3.365000000    -2.147000000     4.463000000
H    -2.678000000    -1.877000000     3.853000000
H    -3.553000000    -3.054000000     4.224000000
O    -0.782000000     5.179000000     2.793000000
H    -0.885000000     5.538000000     3.675000000
H    -0.129000000     4.486000000     2.891000000
O     1.852000000     5.989000000     1.810000000
H     1.328000000     5.688000000     2.552000000
H     2.032000000     6.909000000     2.001000000
O     0.147000000    -2.838000000     3.617000000
H     0.078000000    -2.086000000     4.205000000
H     1.086000000    -3.018000000     3.566000000
O     2.710000000     1.545000000     0.063000000
H     2.667000000     2.461000000    -0.210000000
H     1.896000000     1.160000000    -0.262000000
O    -1.198000000    -6.574000000    -3.359000000
H    -1.000000000    -5.789000000    -3.869000000
H    -0.646000000    -6.499000000    -2.580000000
O    -0.231000000     5.175000000    -2.484000000
H     0.402000000     4.461000000    -2.406000000
H    -1.083000000     4.739000000    -2.502000000
O    -1.757000000    -4.666000000     2.682000000
H    -2.554000000    -4.748000000     3.207000000
H    -1.248000000    -3.986000000     3.124000000
O     5.470000000     0.832000000    -3.154000000
H     6.044000000     0.069000000    -3.084000000
H     4.619000000     0.520000000    -2.844000000
O     6.550000000     1.537000000     3.095000000
H     5.900000000     1.152000000     2.507000000
H     6.769000000     2.377000000     2.692000000
O    -0.474000000     1.274000000    -7.233000000
H    -0.222000000     1.516000000    -8.124000000
H     0.171000000     0.618000000    -6.971000000
O    -2.137000000     4.414000000     0.582000000
H    -2.982000000     4.710000000     0.920000000
H    -1.498000000     4.733000000     1.219000000
O     1.913000000     5.344000000     4.711000000
H     1.751000000     4.453000000     4.402000000
H     2.846000000     5.359000000     4.923000000
O     0.377000000    -4.198000000    -0.006000000
H    -0.500000000    -4.047000000    -0.358000000
H     0.966000000    -3.835000000    -0.667000000
O     3.291000000     1.962000000     4.906000000
H     3.667000000     1.429000000     4.205000000
H     2.409000000     1.611000000     5.028000000
O    -2.990000000     0.074000000    -5.870000000
H    -2.214000000     0.413000000    -6.316000000
H    -2.666000000    -0.224000000    -5.020000000
O    -1.315000000     2.691000000    -3.467000000
H    -0.386000000     2.648000000    -3.238000000
H    -1.593000000     1.777000000    -3.515000000
O    -5.530000000     1.263000000     0.087000000
H    -5.146000000     1.078000000    -0.770000000
H    -5.208000000     0.561000000     0.651000000
O    -1.069000000     3.590000000    -6.079000000
H    -1.014000000     3.296000000    -5.169000000
H    -0.810000000     2.826000000    -6.594000000
O    -5.341000000    -0.203000000    -4.589000000
H    -5.810000000     0.473000000    -5.077000000
H    -4.512000000    -0.305000000    -5.057000000
O     3.350000000    -3.992000000    -0.115000000
H     2.682000000    -4.362000000     0.462000000
H     4.179000000    -4.187000000     0.321000000
O     3.125000000    -3.969000000    -6.580000000
H     2.532000000    -4.323000000    -7.242000000
H     2.695000000    -3.169000000    -6.277000000
O    -0.141000000    -4.222000000    -4.243000000
H     0.735000000    -4.383000000    -3.891000000
H    -0.403000000    -3.386000000    -3.857000000
O    -4.594000000    -0.448000000     1.860000000
H    -3.811000000    -0.990000000     1.768000000
H    -4.780000000    -0.452000000     2.800000000
O     2.915000000    -1.724000000    -4.779000000
H     2.249000000    -1.038000000    -4.753000000
H     2.777000000    -2.223000000    -3.973000000
O    -1.786000000    -3.700000000    -1.631000000
H    -2.657000000    -3.564000000    -1.257000000
H    -1.762000000    -3.126000000    -2.396000000
O     2.730000000     4.176000000    -0.306000000
H     3.667000000     4.368000000    -0.295000000
H     2.373000000     4.684000000     0.423000000
O     5.214000000    -2.161000000     2.984000000
H     5.808000000    -1.926000000     2.271000000
H     5.778000000    -2.574000000     3.639000000
O     2.451000000    -4.375000000    -2.699000000
H     3.243000000    -4.578000000    -3.197000000
H     2.762000000    -4.223000000    -1.807000000
O    -4.499000000    -2.044000000    -2.097000000
H    -4.546000000    -1.223000000    -1.607000000
H    -5.369000000    -2.141000000    -2.484000000
O    -4.835000000     4.073000000     1.372000000
H    -5.592000000     4.571000000     1.065000000
H    -4.836000000     3.280000000     0.836000000
O    -4.090000000     0.487000000    -2.388000000
H    -3.142000000     0.411000000    -2.498000000
H    -4.446000000     0.303000000    -3.257000000
O     0.802000000     3.074000000     3.245000000
H     1.442000000     2.447000000     2.909000000
H     0.002000000     2.561000000     3.361000000
O     0.571000000    -4.934000000    -7.360000000
H     0.015000000    -4.606000000    -6.653000000
H    -0.041000000    -5.170000000    -8.056000000
