158
-3053.52083
C    -0.119000000    -0.981000000     1.131000000
H    -0.157000000    -1.693000000     1.952000000
C     0.359000000     0.359000000     1.259000000
H     0.715000000     0.676000000     2.236000000
C     0.283000000     1.139000000     0.144000000
H     0.734000000     2.162000000     0.249000000
C    -0.149000000     0.699000000    -1.118000000
H    -0.153000000     1.321000000    -2.010000000
C    -0.549000000    -0.620000000    -1.191000000
H    -0.880000000    -0.939000000    -2.176000000
C    -0.450000000    -1.486000000    -0.106000000
C    -0.621000000    -2.928000000    -0.276000000
O    -0.344000000    -3.726000000     0.640000000
O    -0.675000000    -3.359000000    -1.441000000
O     2.336000000    -0.433000000    -3.413000000
H     2.098000000    -1.212000000    -2.910000000
H     2.729000000     0.156000000    -2.770000000
O    -0.102000000     0.870000000    -7.151000000
H     0.214000000     0.991000000    -8.047000000
H     0.545000000     1.318000000    -6.607000000
O    -6.004000000    -0.729000000    -2.782000000
H    -6.891000000    -1.077000000    -2.873000000
H    -5.439000000    -1.419000000    -3.129000000
O     2.269000000    -6.335000000    -1.519000000
H     2.964000000    -6.181000000    -0.879000000
H     1.489000000    -6.501000000    -0.990000000
O    -2.610000000     2.643000000    -3.234000000
H    -3.307000000     2.407000000    -2.623000000
H    -2.626000000     1.951000000    -3.895000000
O    -1.931000000    -5.468000000     3.516000000
H    -1.965000000    -4.914000000     2.736000000
H    -2.031000000    -6.359000000     3.181000000
O    -3.869000000     2.328000000     3.049000000
H    -3.534000000     1.477000000     3.330000000
H    -3.164000000     2.700000000     2.518000000
O     3.621000000     1.040000000    -1.609000000
H     4.456000000     0.677000000    -1.906000000
H     3.695000000     1.979000000    -1.777000000
O     5.432000000     1.179000000     2.422000000
H     5.806000000     1.819000000     1.817000000
H     4.959000000     0.565000000     1.860000000
O    -2.128000000    -2.126000000     6.106000000
H    -1.677000000    -2.894000000     5.755000000
H    -3.045000000    -2.393000000     6.163000000
O     1.376000000    -3.860000000     2.775000000
H     1.398000000    -4.804000000     2.936000000
H     0.809000000    -3.761000000     2.009000000
O    -4.325000000    -2.363000000    -4.302000000
H    -3.447000000    -2.736000000    -4.221000000
H    -4.474000000    -2.301000000    -5.245000000
O    -1.587000000    -7.882000000    -1.157000000
H    -2.383000000    -7.820000000    -0.630000000
H    -0.941000000    -7.365000000    -0.677000000
O    -2.979000000    -5.281000000    -0.608000000
H    -3.189000000    -5.321000000    -1.541000000
H    -2.069000000    -4.987000000    -0.580000000
O     0.897000000    -0.067000000     6.202000000
H     0.970000000    -0.920000000     5.773000000
H     0.166000000     0.363000000     5.758000000
O     3.948000000     6.488000000    -1.611000000
H     3.066000000     6.752000000    -1.346000000
H     3.889000000     5.540000000    -1.725000000
O     1.529000000     3.897000000     5.355000000
H     1.865000000     4.546000000     4.737000000
H     2.272000000     3.702000000     5.926000000
O     3.647000000     4.032000000     0.195000000
H     3.094000000     3.508000000     0.774000000
H     3.610000000     3.580000000    -0.647000000
O     3.851000000     6.490000000     1.407000000
H     4.117000000     7.203000000     0.826000000
H     3.817000000     5.720000000     0.840000000
O     3.586000000     3.563000000    -3.007000000
H     2.983000000     2.956000000    -3.434000000
H     4.228000000     3.780000000    -3.683000000
O     1.199000000    -6.547000000     3.120000000
H     1.847000000    -7.246000000     3.202000000
H     0.359000000    -6.979000000     3.273000000
O     1.558000000     1.780000000    -4.820000000
H     0.986000000     2.282000000    -4.239000000
H     1.624000000     0.919000000    -4.407000000
O    -0.152000000    -0.877000000    -5.027000000
H    -0.010000000    -0.715000000    -5.960000000
H     0.723000000    -0.839000000    -4.642000000
O    -2.513000000     6.527000000    -1.142000000
H    -2.454000000     6.068000000    -1.980000000
H    -2.094000000     7.373000000    -1.301000000
O     1.891000000    -3.528000000    -2.718000000
H     2.330000000    -4.271000000    -2.303000000
H     1.068000000    -3.438000000    -2.237000000
O     2.100000000     6.141000000     3.591000000
H     1.744000000     6.992000000     3.337000000
H     2.782000000     5.963000000     2.943000000
O    -0.478000000    -5.506000000    -3.025000000
H    -0.385000000    -4.855000000    -2.330000000
H     0.228000000    -6.132000000    -2.863000000
O     3.672000000    -0.473000000     1.241000000
H     2.808000000    -0.669000000     1.605000000
H     3.488000000    -0.010000000     0.424000000
O     4.944000000     4.247000000     3.284000000
H     4.862000000     3.307000000     3.448000000
H     4.561000000     4.373000000     2.416000000
O     0.281000000    -6.271000000     0.280000000
H     0.029000000    -5.347000000     0.295000000
H     0.868000000    -6.370000000     1.030000000
O    -0.122000000     3.962000000    -3.413000000
H    -1.005000000     3.723000000    -3.131000000
H    -0.197000000     4.878000000    -3.681000000
O    -0.683000000     4.637000000    -6.001000000
H     0.049000000     4.600000000    -6.617000000
H    -0.415000000     4.071000000    -5.277000000
O    -2.739000000     0.265000000     4.569000000
H    -2.151000000    -0.386000000     4.952000000
H    -3.486000000     0.294000000     5.167000000
O    -2.878000000     0.198000000    -4.215000000
H    -3.344000000    -0.633000000    -4.128000000
H    -1.969000000    -0.053000000    -4.380000000
O    -4.947000000    -5.009000000     1.216000000
H    -4.206000000    -5.069000000     0.613000000
H    -4.928000000    -4.106000000     1.532000000
O     1.492000000     3.479000000     2.215000000
H     1.031000000     4.267000000     1.927000000
H     1.270000000     3.396000000     3.143000000
O     0.874000000     7.338000000    -3.566000000
H     1.093000000     7.042000000    -2.682000000
H    -0.078000000     7.435000000    -3.557000000
O    -0.174000000    -4.760000000    -5.938000000
H    -0.845000000    -5.409000000    -6.150000000
H    -0.308000000    -4.571000000    -5.009000000
O    -4.419000000     4.785000000     0.106000000
H    -4.086000000     5.650000000    -0.133000000
H    -3.883000000     4.521000000     0.854000000
O     2.830000000    -3.840000000    -5.339000000
H     2.266000000    -4.567000000    -5.602000000
H     2.590000000    -3.668000000    -4.429000000
O    -4.888000000     1.552000000    -1.920000000
H    -5.157000000     0.679000000    -2.208000000
H    -5.452000000     1.740000000    -1.169000000
O    -1.789000000    -3.007000000    -3.935000000
H    -1.227000000    -2.375000000    -4.383000000
H    -1.253000000    -3.332000000    -3.212000000
O    -4.071000000    -2.430000000     1.730000000
H    -4.568000000    -2.360000000     0.915000000
H    -3.266000000    -1.940000000     1.563000000
O    -3.152000000    -5.607000000    -3.414000000
H    -3.159000000    -4.714000000    -3.757000000
H    -2.227000000    -5.795000000    -3.256000000
O     1.488000000     7.136000000    -0.594000000
H     1.020000000     6.787000000     0.164000000
H     1.563000000     8.074000000    -0.417000000
O     0.820000000    -2.613000000     5.158000000
H     0.344000000    -3.352000000     5.538000000
H     1.177000000    -2.954000000     4.338000000
O    -0.128000000     5.654000000     1.451000000
H    -0.255000000     6.329000000     2.117000000
H    -0.846000000     5.791000000     0.832000000
O    -1.786000000     3.080000000     1.562000000
H    -1.075000000     3.720000000     1.516000000
H    -1.780000000     2.655000000     0.704000000
