158
-3034.38448
C    -0.642000000    -1.321000000     0.254000000
H    -0.926000000    -2.342000000     0.498000000
C    -0.054000000    -0.521000000     1.208000000
H     0.131000000    -0.885000000     2.215000000
C     0.481000000     0.675000000     0.857000000
H     0.861000000     1.306000000     1.710000000
C     0.418000000     1.102000000    -0.438000000
H     0.727000000     2.122000000    -0.652000000
C    -0.294000000     0.344000000    -1.379000000
H    -0.515000000     0.806000000    -2.338000000
C    -0.733000000    -0.930000000    -1.042000000
C    -1.403000000    -1.698000000    -2.175000000
O    -2.209000000    -2.606000000    -1.862000000
O    -1.053000000    -1.520000000    -3.289000000
O    -1.299000000     0.700000000    -6.942000000
H    -2.040000000     0.097000000    -7.007000000
H    -0.679000000     0.255000000    -6.363000000
O    -4.558000000     0.235000000    -0.076000000
H    -5.194000000     0.585000000     0.547000000
H    -3.814000000     0.836000000    -0.021000000
O    -5.330000000    -1.124000000    -5.717000000
H    -4.891000000    -0.625000000    -6.407000000
H    -4.621000000    -1.581000000    -5.264000000
O     3.748000000     1.502000000     1.891000000
H     3.801000000     0.787000000     2.525000000
H     2.997000000     2.022000000     2.178000000
O    -3.025000000    -6.480000000     2.928000000
H    -3.293000000    -6.893000000     2.107000000
H    -2.268000000    -5.944000000     2.689000000
O    -3.947000000     3.307000000    -1.594000000
H    -3.963000000     4.021000000    -2.231000000
H    -4.184000000     2.529000000    -2.099000000
O     3.791000000     1.771000000    -4.771000000
H     3.497000000     0.932000000    -4.416000000
H     2.987000000     2.277000000    -4.887000000
O     6.626000000     1.972000000     1.070000000
H     7.236000000     1.364000000     1.489000000
H     5.764000000     1.580000000     1.209000000
O    -0.314000000    -5.549000000    -0.172000000
H     0.368000000    -5.151000000    -0.712000000
H    -1.091000000    -5.552000000    -0.731000000
O     2.834000000    -0.737000000    -4.008000000
H     3.181000000    -0.506000000    -3.146000000
H     3.529000000    -1.254000000    -4.415000000
O     1.566000000     2.402000000     6.648000000
H     2.130000000     1.734000000     7.037000000
H     0.678000000     2.138000000     6.892000000
O    -5.243000000    -4.757000000    -5.121000000
H    -5.145000000    -4.200000000    -4.348000000
H    -4.382000000    -4.738000000    -5.540000000
O    -4.036000000    -2.584000000    -0.049000000
H    -4.263000000    -1.665000000    -0.196000000
H    -3.439000000    -2.801000000    -0.765000000
O     2.492000000    -2.074000000     0.427000000
H     1.743000000    -1.510000000     0.619000000
H     2.415000000    -2.796000000     1.051000000
O     1.410000000    -4.159000000    -1.651000000
H     1.791000000    -4.113000000    -2.527000000
H     1.901000000    -3.515000000    -1.141000000
O     3.712000000     5.778000000    -2.961000000
H     3.387000000     4.879000000    -3.005000000
H     3.272000000     6.228000000    -3.682000000
O     2.674000000    -0.131000000     4.431000000
H     1.803000000    -0.355000000     4.757000000
H     3.261000000    -0.327000000     5.162000000
O     5.230000000    -2.186000000     1.862000000
H     4.945000000    -2.124000000     2.773000000
H     4.616000000    -1.632000000     1.380000000
O    -2.925000000     0.008000000     3.742000000
H    -3.818000000     0.299000000     3.928000000
H    -3.033000000    -0.852000000     3.337000000
O    -2.503000000     4.042000000     4.605000000
H    -2.116000000     4.431000000     3.820000000
H    -2.267000000     4.643000000     5.311000000
O     5.421000000     2.942000000    -2.715000000
H     4.833000000     3.139000000    -1.986000000
H     4.857000000     2.540000000    -3.375000000
O    -2.238000000    -4.572000000    -6.004000000
H    -2.291000000    -5.493000000    -6.260000000
H    -1.401000000    -4.498000000    -5.546000000
O     1.224000000     2.791000000    -4.544000000
H     0.578000000     3.473000000    -4.359000000
H     0.747000000     2.145000000    -5.066000000
O    -0.972000000     4.473000000    -4.695000000
H    -0.442000000     5.241000000    -4.482000000
H    -1.844000000     4.685000000    -4.364000000
O     0.476000000    -0.047000000    -4.983000000
H     1.300000000    -0.384000000    -4.631000000
H    -0.201000000    -0.547000000    -4.528000000
O     4.768000000     3.999000000     3.657000000
H     4.122000000     3.728000000     3.004000000
H     4.601000000     4.932000000     3.786000000
O     0.028000000     6.315000000    -0.373000000
H    -0.913000000     6.184000000    -0.259000000
H     0.223000000     5.922000000    -1.224000000
O    -1.022000000     1.779000000     5.978000000
H    -0.666000000     0.994000000     5.563000000
H    -1.433000000     2.263000000     5.262000000
O    -0.349000000    -0.590000000     4.964000000
H    -0.318000000    -1.539000000     5.087000000
H    -1.114000000    -0.446000000     4.408000000
O    -2.261000000    -5.295000000    -2.096000000
H    -1.879000000    -5.581000000    -2.926000000
H    -2.116000000    -4.349000000    -2.079000000
O     3.430000000     0.254000000    -1.418000000
H     2.783000000     0.946000000    -1.281000000
H     3.510000000    -0.172000000    -0.565000000
O     5.621000000     5.236000000    -0.612000000
H     4.957000000     4.546000000    -0.592000000
H     5.703000000     5.464000000    -1.538000000
O    -4.256000000    -2.633000000    -3.245000000
H    -3.374000000    -2.506000000    -2.895000000
H    -4.782000000    -1.955000000    -2.822000000
O    -2.466000000     1.296000000     1.256000000
H    -2.427000000     0.893000000     2.124000000
H    -1.718000000     0.927000000     0.787000000
O    -1.763000000    -1.914000000    -5.853000000
H    -1.684000000    -1.922000000    -4.899000000
H    -2.047000000    -2.800000000    -6.077000000
O     3.531000000     3.294000000    -0.253000000
H     2.965000000     3.874000000     0.257000000
H     3.917000000     2.706000000     0.395000000
O     1.830000000    -3.966000000     2.497000000
H     1.799000000    -4.902000000     2.695000000
H     2.317000000    -3.583000000     3.227000000
O    -4.895000000    -5.340000000    -0.774000000
H    -4.299000000    -6.039000000    -1.041000000
H    -4.321000000    -4.613000000    -0.535000000
O    -0.077000000    -4.104000000    -4.545000000
H     0.830000000    -4.010000000    -4.253000000
H    -0.555000000    -3.430000000    -4.061000000
O    -3.193000000    -2.514000000     2.561000000
H    -3.522000000    -2.319000000     1.683000000
H    -2.410000000    -3.044000000     2.411000000
O     2.655000000    -3.799000000    -4.162000000
H     3.466000000    -3.601000000    -3.694000000
H     2.909000000    -3.814000000    -5.085000000
O    -0.994000000     5.319000000     2.637000000
H    -1.624000000     4.847000000     2.093000000
H    -0.434000000     5.778000000     2.011000000
O     2.140000000     3.352000000     3.338000000
H     1.390000000     3.928000000     3.485000000
H     2.269000000     2.907000000     4.176000000
O    -0.437000000    -3.386000000     5.649000000
H    -0.903000000    -3.045000000     6.412000000
H    -0.855000000    -4.228000000     5.470000000
O    -2.796000000     4.045000000     0.942000000
H    -3.100000000     3.971000000     0.038000000
H    -2.600000000     3.145000000     1.203000000
O    -1.030000000    -4.276000000     1.910000000
H    -0.194000000    -4.015000000     2.296000000
H    -0.788000000    -4.793000000     1.142000000
O     1.389000000     6.276000000     4.527000000
H     1.956000000     6.744000000     3.914000000
H     0.638000000     6.857000000     4.650000000
O     1.553000000    -2.600000000    -7.056000000
H     2.205000000    -1.934000000    -6.841000000
H     0.756000000    -2.308000000    -6.613000000
