158
-3051.78825
C    -1.255000000    -0.248000000    -0.764000000
H    -2.190000000    -0.246000000    -1.319000000
C    -1.134000000     0.429000000     0.441000000
H    -2.063000000     0.723000000     0.923000000
C     0.094000000     0.521000000     1.063000000
H     0.072000000     0.905000000     2.100000000
C     1.229000000     0.183000000     0.454000000
H     2.164000000     0.407000000     0.960000000
C     1.208000000    -0.377000000    -0.785000000
H     2.075000000    -0.758000000    -1.319000000
C    -0.026000000    -0.651000000    -1.432000000
C    -0.131000000    -1.424000000    -2.749000000
O    -1.182000000    -2.060000000    -2.978000000
O     0.723000000    -1.155000000    -3.587000000
O    -1.006000000    -2.639000000     4.388000000
H    -0.962000000    -2.664000000     3.432000000
H    -0.571000000    -3.443000000     4.669000000
O    -2.248000000    -1.192000000    -5.382000000
H    -3.077000000    -0.728000000    -5.262000000
H    -1.983000000    -1.440000000    -4.496000000
O    -0.046000000     1.936000000     6.529000000
H     0.392000000     1.219000000     6.071000000
H    -0.709000000     2.245000000     5.911000000
O    -0.382000000    -0.986000000    -8.511000000
H    -1.073000000    -0.453000000    -8.118000000
H     0.022000000    -1.438000000    -7.770000000
O    -4.619000000     0.219000000    -5.726000000
H    -5.315000000    -0.438000000    -5.720000000
H    -4.679000000     0.638000000    -4.867000000
O    -3.925000000     3.265000000    -3.947000000
H    -4.534000000     3.473000000    -4.655000000
H    -4.409000000     2.659000000    -3.385000000
O     5.451000000     0.166000000    -0.615000000
H     5.483000000     1.098000000    -0.835000000
H     6.003000000     0.085000000     0.163000000
O     0.065000000    -2.332000000     1.589000000
H     0.930000000    -2.408000000     1.991000000
H     0.178000000    -1.678000000     0.900000000
O     2.876000000    -2.469000000     2.418000000
H     3.526000000    -2.278000000     1.741000000
H     2.939000000    -3.415000000     2.549000000
O    -2.713000000    -3.147000000    -1.052000000
H    -3.052000000    -2.322000000    -0.705000000
H    -2.102000000    -2.885000000    -1.740000000
O    -5.371000000    -0.486000000     2.363000000
H    -5.189000000    -1.286000000     2.856000000
H    -4.656000000     0.107000000     2.596000000
O     2.525000000    -5.014000000    -3.423000000
H     2.409000000    -5.960000000    -3.338000000
H     2.721000000    -4.880000000    -4.351000000
O     4.194000000    -2.362000000    -0.018000000
H     4.723000000    -1.577000000    -0.159000000
H     4.536000000    -2.998000000    -0.646000000
O     3.131000000     2.840000000    -2.687000000
H     2.272000000     2.615000000    -2.331000000
H     2.950000000     3.515000000    -3.342000000
O    -5.612000000    -2.862000000    -4.149000000
H    -5.021000000    -3.210000000    -4.817000000
H    -6.318000000    -2.448000000    -4.645000000
O    -3.832000000    -3.498000000    -6.539000000
H    -3.036000000    -2.967000000    -6.522000000
H    -3.522000000    -4.390000000    -6.696000000
O    -2.067000000     3.517000000     5.080000000
H    -1.206000000     3.841000000     4.818000000
H    -2.603000000     4.306000000     5.171000000
O     5.868000000    -2.407000000    -3.863000000
H     5.549000000    -3.107000000    -3.293000000
H     5.140000000    -1.787000000    -3.912000000
O     4.749000000     0.360000000     5.765000000
H     4.222000000     0.766000000     5.077000000
H     4.110000000    -0.072000000     6.332000000
O    -0.256000000     5.008000000     1.708000000
H    -0.365000000     5.931000000     1.481000000
H     0.480000000     4.715000000     1.170000000
O     2.919000000    -1.859000000    -4.689000000
H     3.319000000    -0.995000000    -4.594000000
H     2.075000000    -1.782000000    -4.243000000
O     2.344000000     4.105000000     0.441000000
H     2.052000000     3.665000000    -0.357000000
H     3.096000000     3.592000000     0.737000000
O     4.927000000     0.615000000    -3.572000000
H     4.328000000     1.355000000    -3.466000000
H     5.152000000     0.360000000    -2.677000000
O     0.582000000     2.548000000    -1.424000000
H     0.504000000     1.893000000    -0.730000000
H    -0.138000000     2.349000000    -2.022000000
O    -0.201000000    -5.743000000    -1.235000000
H    -0.500000000    -5.800000000    -2.142000000
H     0.314000000    -4.936000000    -1.203000000
O    -1.791000000    -4.944000000    -3.597000000
H    -1.737000000    -5.060000000    -4.545000000
H    -1.703000000    -4.000000000    -3.465000000
O    -5.997000000     2.854000000     2.646000000
H    -5.347000000     2.332000000     3.116000000
H    -6.053000000     2.446000000     1.782000000
O     4.945000000    -4.358000000    -1.878000000
H     5.530000000    -5.115000000    -1.916000000
H     4.066000000    -4.736000000    -1.848000000
O    -3.831000000     1.643000000     3.964000000
H    -3.182000000     2.169000000     4.430000000
H    -3.666000000     0.746000000     4.253000000
O    -4.948000000     1.825000000    -0.198000000
H    -5.138000000     2.716000000    -0.494000000
H    -4.042000000     1.862000000     0.108000000
O     2.176000000     1.313000000    -6.576000000
H     2.352000000     2.239000000    -6.412000000
H     1.300000000     1.169000000    -6.218000000
O     0.332000000     4.362000000     4.391000000
H     0.138000000     4.566000000     3.476000000
H     1.286000000     4.408000000     4.449000000
O     3.964000000     2.264000000     2.353000000
H     3.432000000     1.495000000     2.557000000
H     4.829000000     2.057000000     2.706000000
O    -0.245000000     0.831000000    -5.427000000
H    -0.907000000     0.625000000    -6.087000000
H    -0.224000000     0.060000000    -4.860000000
O     1.719000000    -3.459000000    -1.098000000
H     1.917000000    -3.651000000    -2.015000000
H     2.505000000    -3.024000000    -0.769000000
O    -3.650000000    -6.845000000    -2.562000000
H    -2.874000000    -7.404000000    -2.517000000
H    -3.303000000    -5.965000000    -2.711000000
O    -3.156000000    -0.879000000     4.536000000
H    -2.412000000    -1.418000000     4.267000000
H    -3.591000000    -1.393000000     5.216000000
O    -5.337000000    -4.663000000    -1.943000000
H    -4.504000000    -4.534000000    -1.489000000
H    -5.403000000    -3.916000000    -2.538000000
O     0.080000000    -3.181000000    -5.372000000
H     1.012000000    -2.980000000    -5.455000000
H    -0.236000000    -2.579000000    -4.699000000
O    -2.383000000    -4.623000000     0.996000000
H    -2.319000000    -4.085000000     0.207000000
H    -1.573000000    -4.446000000     1.474000000
O     3.068000000    -4.160000000    -6.195000000
H     3.218000000    -3.359000000    -5.694000000
H     3.921000000    -4.595000000    -6.214000000
O    -2.520000000     3.734000000     0.393000000
H    -1.762000000     3.910000000     0.950000000
H    -2.450000000     4.374000000    -0.316000000
O    -4.432000000    -1.282000000    -0.448000000
H    -4.479000000    -0.740000000     0.339000000
H    -5.345000000    -1.408000000    -0.707000000
O     2.754000000    -0.064000000     3.729000000
H     1.977000000    -0.040000000     4.287000000
H     2.691000000    -0.899000000     3.267000000
O    -1.251000000     3.088000000    -3.577000000
H    -2.191000000     3.145000000    -3.403000000
H    -1.180000000     2.475000000    -4.308000000
O     0.700000000    -0.899000000     5.813000000
H    -0.039000000    -1.356000000     5.412000000
H     1.364000000    -1.577000000     5.933000000
O    -5.168000000     0.981000000    -2.985000000
H    -6.043000000     0.660000000    -3.202000000
H    -5.059000000     0.771000000    -2.057000000
O     2.928000000    -0.177000000     7.680000000
H     2.140000000    -0.390000000     7.180000000
H     2.683000000     0.590000000     8.198000000
