158
-3056.35228
C    -0.790000000    -1.108000000     0.546000000
H    -1.178000000    -2.019000000     0.994000000
C    -0.241000000    -0.055000000     1.282000000
H    -0.238000000     0.001000000     2.368000000
C     0.448000000     0.959000000     0.634000000
H     0.920000000     1.751000000     1.212000000
C     0.434000000     1.026000000    -0.720000000
H     0.999000000     1.793000000    -1.244000000
C    -0.045000000    -0.096000000    -1.459000000
H     0.151000000    -0.029000000    -2.526000000
C    -0.702000000    -1.166000000    -0.848000000
C    -1.064000000    -2.423000000    -1.618000000
O    -1.465000000    -3.436000000    -1.069000000
O    -0.995000000    -2.369000000    -2.802000000
O    -2.181000000     1.975000000    -3.097000000
H    -3.029000000     2.409000000    -3.194000000
H    -2.086000000     1.845000000    -2.153000000
O     0.049000000     2.609000000    -4.603000000
H    -0.064000000     2.141000000    -5.430000000
H    -0.839000000     2.709000000    -4.261000000
O    -2.955000000     5.915000000     1.807000000
H    -3.403000000     5.127000000     1.497000000
H    -2.845000000     6.452000000     1.022000000
O     4.317000000    -0.134000000     3.061000000
H     3.829000000     0.527000000     2.569000000
H     3.647000000    -0.617000000     3.543000000
O    -3.213000000    -4.079000000     1.049000000
H    -2.673000000    -4.167000000     0.264000000
H    -2.637000000    -3.665000000     1.691000000
O     0.106000000     4.996000000     0.143000000
H    -0.052000000     4.837000000     1.074000000
H     1.058000000     5.047000000     0.067000000
O    -4.429000000    -2.510000000     3.153000000
H    -4.916000000    -3.306000000     2.944000000
H    -4.925000000    -2.104000000     3.863000000
O     4.161000000     2.289000000    -1.103000000
H     4.959000000     2.307000000    -1.632000000
H     3.552000000     1.749000000    -1.608000000
O    -4.351000000    -0.466000000     1.292000000
H    -4.497000000    -1.400000000     1.139000000
H    -4.566000000    -0.339000000     2.216000000
O    -1.034000000    -6.003000000    -0.940000000
H    -1.644000000    -6.624000000    -1.337000000
H    -1.374000000    -5.143000000    -1.188000000
O     4.498000000     4.441000000     3.265000000
H     4.654000000     5.299000000     3.661000000
H     5.073000000     3.847000000     3.746000000
O     1.615000000    -7.314000000    -1.346000000
H     1.182000000    -8.112000000    -1.650000000
H     0.915000000    -6.664000000    -1.301000000
O    -5.580000000    -2.901000000    -0.301000000
H    -5.088000000    -2.589000000    -1.061000000
H    -4.939000000    -3.388000000     0.216000000
O    -3.662000000    -4.316000000    -2.432000000
H    -4.035000000    -3.635000000    -2.992000000
H    -2.919000000    -3.891000000    -2.002000000
O     2.387000000    -1.870000000     4.440000000
H     1.671000000    -2.370000000     4.049000000
H     2.008000000    -1.010000000     4.621000000
O     1.373000000     0.507000000     4.871000000
H     1.383000000     1.272000000     4.295000000
H     0.478000000     0.474000000     5.209000000
O    -1.879000000     0.953000000     5.118000000
H    -2.432000000     1.489000000     4.549000000
H    -2.345000000     0.120000000     5.188000000
O     3.176000000     4.811000000    -1.206000000
H     3.288000000     3.918000000    -0.880000000
H     2.581000000     4.722000000    -1.950000000
O     1.748000000    -3.086000000    -2.913000000
H     1.761000000    -3.287000000    -1.977000000
H     0.840000000    -2.840000000    -3.092000000
O    -4.297000000    -6.274000000     2.346000000
H    -3.790000000    -5.700000000     1.772000000
H    -3.811000000    -6.279000000     3.170000000
O    -3.530000000    -2.616000000    -5.935000000
H    -3.480000000    -1.811000000    -5.418000000
H    -3.883000000    -2.337000000    -6.779000000
O    -1.739000000    -3.480000000     3.675000000
H    -2.663000000    -3.262000000     3.796000000
H    -1.519000000    -4.020000000     4.434000000
O     7.653000000     1.425000000     1.326000000
H     6.788000000     1.772000000     1.544000000
H     8.234000000     1.796000000     1.990000000
O     0.257000000     1.221000000    -7.011000000
H     0.297000000     0.365000000    -6.584000000
H     1.172000000     1.453000000    -7.170000000
O    -0.768000000     2.589000000     7.288000000
H    -1.112000000     2.044000000     6.581000000
H    -0.451000000     1.963000000     7.940000000
O     3.081000000    -1.597000000    -5.109000000
H     3.996000000    -1.478000000    -5.366000000
H     3.089000000    -2.372000000    -4.547000000
O     0.500000000    -5.302000000     1.076000000
H     0.805000000    -6.165000000     1.355000000
H    -0.345000000    -5.470000000     0.659000000
O     0.305000000    -5.878000000    -4.899000000
H     0.636000000    -5.710000000    -4.017000000
H     0.006000000    -5.024000000    -5.209000000
O     5.306000000     2.700000000     1.542000000
H     4.906000000     3.324000000     2.148000000
H     4.704000000     2.667000000     0.799000000
O     0.680000000     5.031000000     2.797000000
H     1.504000000     5.420000000     3.090000000
H     0.013000000     5.676000000     3.035000000
O     5.426000000     2.375000000     4.719000000
H     5.545000000     2.426000000     5.667000000
H     5.085000000     1.493000000     4.568000000
O     2.224000000     2.848000000     3.322000000
H     3.029000000     3.367000000     3.308000000
H     1.531000000     3.477000000     3.122000000
O    -3.374000000     2.625000000     3.535000000
H    -4.144000000     2.147000000     3.227000000
H    -3.242000000     3.312000000     2.882000000
O     3.220000000     0.684000000    -3.034000000
H     2.359000000     0.693000000    -2.617000000
H     3.109000000     0.120000000    -3.800000000
O    -1.042000000    -3.625000000    -5.250000000
H    -0.822000000    -3.141000000    -4.454000000
H    -1.966000000    -3.430000000    -5.401000000
O     1.528000000     4.420000000    -3.415000000
H     1.129000000     5.289000000    -3.413000000
H     0.934000000     3.884000000    -3.940000000
O     4.685000000    -2.989000000    -2.941000000
H     4.795000000    -3.508000000    -3.738000000
H     3.790000000    -3.174000000    -2.657000000
O    -2.764000000     1.283000000    -0.112000000
H    -3.338000000     0.562000000     0.145000000
H    -2.057000000     1.268000000     0.533000000
O     2.971000000     6.153000000     1.487000000
H     3.464000000     6.541000000     0.764000000
H     3.568000000     5.507000000     1.864000000
O    -3.775000000    -6.664000000    -3.885000000
H    -3.848000000    -6.450000000    -4.815000000
H    -3.830000000    -5.818000000    -3.439000000
O    -2.972000000    -0.561000000    -4.116000000
H    -2.279000000    -1.021000000    -3.641000000
H    -2.619000000     0.317000000    -4.264000000
O     0.278000000    -1.130000000    -5.802000000
H     1.142000000    -1.321000000    -5.438000000
H    -0.205000000    -1.952000000    -5.718000000
O    -5.175000000    -1.397000000    -2.781000000
H    -4.387000000    -1.007000000    -3.158000000
H    -5.859000000    -1.233000000    -3.431000000
O     2.079000000    -3.278000000    -0.114000000
H     1.769000000    -4.139000000     0.166000000
H     1.597000000    -2.659000000     0.436000000
O    -4.049000000     3.786000000     0.721000000
H    -3.811000000     4.170000000    -0.123000000
H    -3.766000000     2.874000000     0.658000000
O     0.368000000     8.021000000    -0.528000000
H     0.503000000     7.661000000     0.348000000
H     0.098000000     7.270000000    -1.056000000
O     0.743000000    -3.149000000     2.691000000
H    -0.115000000    -3.085000000     3.112000000
H     0.620000000    -3.795000000     1.995000000
O    -2.340000000     5.066000000    -1.279000000
H    -1.635000000     4.966000000    -0.638000000
H    -1.896000000     5.340000000    -2.082000000
