158
-3041.32055
C    -0.754000000    -1.084000000     0.743000000
H    -1.322000000    -1.726000000     1.412000000
C    -0.236000000     0.066000000     1.294000000
H    -0.566000000     0.366000000     2.285000000
C     0.527000000     0.953000000     0.562000000
H     0.902000000     1.824000000     1.124000000
C     0.719000000     0.743000000    -0.824000000
H     1.250000000     1.547000000    -1.327000000
C     0.264000000    -0.419000000    -1.404000000
H     0.297000000    -0.629000000    -2.470000000
C    -0.504000000    -1.309000000    -0.634000000
C    -1.099000000    -2.577000000    -1.269000000
O    -1.904000000    -3.266000000    -0.663000000
O    -0.847000000    -2.909000000    -2.394000000
O     1.658000000    -0.063000000    -5.231000000
H     1.972000000    -0.673000000    -4.563000000
H     1.762000000     0.801000000    -4.834000000
O    -2.636000000     0.279000000    -3.194000000
H    -3.201000000    -0.401000000    -2.827000000
H    -2.166000000    -0.157000000    -3.904000000
O    -4.637000000     4.658000000     0.446000000
H    -4.097000000     5.357000000     0.076000000
H    -4.008000000     4.012000000     0.765000000
O     4.631000000     0.411000000     4.586000000
H     4.460000000     0.235000000     5.511000000
H     5.135000000     1.225000000     4.587000000
O    -3.707000000    -0.624000000     1.260000000
H    -3.553000000    -1.569000000     1.275000000
H    -3.381000000    -0.342000000     0.405000000
O     3.611000000     1.928000000    -2.136000000
H     3.924000000     1.100000000    -2.500000000
H     2.796000000     2.103000000    -2.607000000
O     6.130000000    -0.889000000     1.650000000
H     6.862000000    -0.410000000     1.262000000
H     5.351000000    -0.492000000     1.260000000
O    -2.485000000    -2.680000000     4.807000000
H    -2.003000000    -3.425000000     4.450000000
H    -3.140000000    -3.072000000     5.384000000
O    -0.744000000    -5.213000000     0.918000000
H    -0.125000000    -5.608000000     0.304000000
H    -1.186000000    -4.534000000     0.409000000
O    -5.694000000    -2.365000000     3.147000000
H    -4.960000000    -2.314000000     2.535000000
H    -5.403000000    -1.869000000     3.912000000
O    -4.058000000    -3.924000000    -4.638000000
H    -3.464000000    -3.176000000    -4.584000000
H    -4.503000000    -3.818000000    -5.479000000
O    -3.702000000    -4.829000000    -2.035000000
H    -3.783000000    -4.431000000    -2.901000000
H    -3.210000000    -4.188000000    -1.521000000
O     1.330000000    -2.065000000     4.537000000
H     0.613000000    -2.700000000     4.524000000
H     0.969000000    -1.305000000     4.994000000
O     3.144000000    -2.078000000    -2.158000000
H     3.701000000    -2.786000000    -1.835000000
H     3.059000000    -1.482000000    -1.414000000
O     3.773000000     4.503000000    -2.077000000
H     2.914000000     4.807000000    -2.370000000
H     3.615000000     3.616000000    -1.752000000
O     2.753000000    -0.476000000     2.806000000
H     3.506000000    -0.360000000     3.385000000
H     2.216000000    -1.137000000     3.242000000
O    -1.409000000     3.334000000     4.921000000
H    -1.677000000     4.004000000     4.293000000
H    -0.604000000     2.970000000     4.553000000
O     5.631000000     2.681000000    -0.047000000
H     5.063000000     2.253000000     0.594000000
H     5.171000000     2.578000000    -0.880000000
O    -3.851000000     1.789000000     2.259000000
H    -3.113000000     1.966000000     1.677000000
H    -4.033000000     0.857000000     2.138000000
O     1.656000000     4.844000000     4.691000000
H     1.433000000     5.723000000     4.997000000
H     1.963000000     4.389000000     5.475000000
O     1.710000000     2.558000000    -4.406000000
H     0.920000000     3.044000000    -4.644000000
H     2.427000000     3.065000000    -4.788000000
O     1.198000000    -6.927000000    -0.858000000
H     1.006000000    -6.572000000    -1.726000000
H     1.266000000    -7.872000000    -0.996000000
O    -0.398000000    -0.495000000    -6.785000000
H    -0.774000000    -1.216000000    -6.280000000
H     0.381000000    -0.238000000    -6.292000000
O    -2.079000000    -7.610000000     1.134000000
H    -2.435000000    -7.705000000     0.251000000
H    -1.447000000    -6.895000000     1.062000000
O    -0.578000000     6.505000000    -0.687000000
H    -1.276000000     6.971000000    -0.228000000
H    -0.323000000     7.094000000    -1.397000000
O     1.244000000    -3.294000000    -3.823000000
H     1.974000000    -3.101000000    -3.234000000
H     0.469000000    -3.259000000    -3.263000000
O     2.387000000     4.580000000     2.190000000
H     2.911000000     5.329000000     1.907000000
H     1.976000000     4.869000000     3.005000000
O     5.816000000     2.959000000     4.029000000
H     5.251000000     2.811000000     3.270000000
H     6.006000000     3.897000000     4.007000000
O     3.155000000     7.030000000     1.113000000
H     3.521000000     6.795000000     0.261000000
H     2.269000000     7.335000000     0.917000000
O     0.259000000     1.257000000     6.366000000
H    -0.536000000     0.731000000     6.280000000
H     0.558000000     1.388000000     5.467000000
O    -1.248000000    -1.248000000     7.025000000
H    -1.595000000    -0.864000000     6.220000000
H    -1.888000000    -1.919000000     7.265000000
O     0.061000000    -6.271000000    -4.559000000
H    -0.356000000    -5.977000000    -3.748000000
H     0.978000000    -6.407000000    -4.321000000
O     3.586000000    -0.189000000     0.193000000
H     3.268000000    -0.292000000     1.090000000
H     2.811000000     0.068000000    -0.307000000
O    -0.992000000    -5.650000000    -2.310000000
H    -1.193000000    -4.728000000    -2.145000000
H    -1.833000000    -6.098000000    -2.221000000
O    -0.988000000     2.614000000    -2.227000000
H    -1.315000000     1.802000000    -2.614000000
H    -0.898000000     3.213000000    -2.968000000
O    -1.691000000     0.003000000     4.677000000
H    -2.352000000    -0.638000000     4.416000000
H    -2.195000000     0.742000000     5.016000000
O    -1.480000000    -2.053000000    -4.816000000
H    -1.168000000    -2.227000000    -3.928000000
H    -1.439000000    -2.903000000    -5.255000000
O     3.717000000     2.313000000     1.796000000
H     3.380000000     3.208000000     1.763000000
H     2.948000000     1.761000000     1.650000000
O     1.675000000    -4.712000000    -6.197000000
H     0.927000000    -5.201000000    -5.853000000
H     1.871000000    -4.066000000    -5.518000000
O    -4.446000000    -1.213000000    -1.841000000
H    -5.241000000    -0.703000000    -1.995000000
H    -4.754000000    -2.013000000    -1.413000000
O    -1.367000000    -4.173000000    -6.352000000
H    -1.728000000    -4.460000000    -7.191000000
H    -1.006000000    -4.969000000    -5.962000000
O    -3.804000000    -3.342000000     1.200000000
H    -4.218000000    -4.189000000     1.033000000
H    -3.049000000    -3.324000000     0.611000000
O    -2.556000000     5.505000000     3.929000000
H    -1.990000000     5.527000000     3.157000000
H    -2.938000000     6.381000000     3.971000000
O     1.085000000     1.832000000     3.758000000
H     1.534000000     1.100000000     3.334000000
H     1.643000000     2.589000000     3.582000000
O     0.874000000     4.855000000    -2.259000000
H     0.421000000     4.044000000    -2.488000000
H     0.280000000     5.299000000    -1.654000000
O    -0.867000000    -4.923000000     3.840000000
H    -0.060000000    -5.347000000     4.132000000
H    -0.812000000    -4.937000000     2.884000000
O    -0.672000000     5.075000000     1.700000000
H     0.277000000     4.959000000     1.747000000
H    -0.808000000     5.632000000     0.935000000
O    -2.045000000     2.763000000     0.554000000
H    -1.580000000     3.580000000     0.732000000
H    -1.485000000     2.301000000    -0.071000000
