158
-3048.88199
C    -0.574000000    -1.130000000     0.774000000
H    -1.065000000    -1.890000000     1.377000000
C     0.019000000    -0.021000000     1.330000000
H     0.052000000    -0.024000000     2.417000000
C     0.459000000     0.982000000     0.518000000
H     0.714000000     1.902000000     0.925000000
C     0.514000000     0.815000000    -0.822000000
H     0.952000000     1.520000000    -1.524000000
C    -0.113000000    -0.281000000    -1.412000000
H    -0.190000000    -0.378000000    -2.492000000
C    -0.751000000    -1.191000000    -0.621000000
C    -1.382000000    -2.413000000    -1.229000000
O    -1.459000000    -3.488000000    -0.636000000
O    -1.649000000    -2.349000000    -2.440000000
O    -3.158000000     1.542000000    -0.896000000
H    -3.687000000     1.149000000    -1.590000000
H    -3.492000000     1.150000000    -0.089000000
O    -1.292000000     2.287000000    -2.974000000
H    -1.130000000     1.344000000    -2.999000000
H    -2.102000000     2.377000000    -2.472000000
O     3.271000000     2.047000000     3.759000000
H     3.306000000     1.349000000     3.105000000
H     2.640000000     1.736000000     4.408000000
O    -2.371000000    -4.373000000     2.778000000
H    -2.845000000    -3.682000000     2.315000000
H    -2.011000000    -4.924000000     2.083000000
O    -2.033000000     2.702000000     1.522000000
H    -1.378000000     3.399000000     1.491000000
H    -1.672000000     2.010000000     0.968000000
O     4.906000000     1.544000000    -0.119000000
H     4.218000000     1.417000000     0.535000000
H     4.474000000     1.374000000    -0.956000000
O    -2.850000000    -1.941000000     3.776000000
H    -2.116000000    -2.530000000     3.604000000
H    -3.398000000    -2.418000000     4.400000000
O     0.026000000    -4.810000000     1.211000000
H     0.035000000    -5.619000000     0.698000000
H    -0.579000000    -4.236000000     0.741000000
O    -5.757000000    -2.494000000     2.541000000
H    -5.122000000    -2.705000000     1.857000000
H    -5.412000000    -2.918000000     3.327000000
O    -4.043000000    -5.504000000    -1.895000000
H    -4.408000000    -5.494000000    -2.780000000
H    -3.426000000    -4.773000000    -1.882000000
O     1.693000000    -0.577000000     4.331000000
H     1.749000000    -1.187000000     3.595000000
H     0.995000000    -0.929000000     4.883000000
O    -0.504000000     2.967000000     5.133000000
H     0.266000000     2.799000000     5.677000000
H    -1.049000000     2.187000000     5.243000000
O    -0.407000000    -1.196000000     6.995000000
H    -1.004000000    -0.649000000     6.484000000
H    -0.356000000    -0.763000000     7.847000000
O     4.479000000     4.646000000    -2.000000000
H     4.588000000     3.695000000    -2.003000000
H     3.559000000     4.781000000    -1.769000000
O     4.113000000    -2.089000000     0.093000000
H     4.401000000    -2.907000000     0.500000000
H     3.637000000    -2.367000000    -0.690000000
O     3.786000000     6.686000000     1.968000000
H     3.559000000     6.017000000     1.322000000
H     3.920000000     6.200000000     2.781000000
O    -5.131000000    -4.546000000    -4.332000000
H    -4.569000000    -5.116000000    -4.857000000
H    -4.964000000    -3.667000000    -4.671000000
O    -0.518000000    -3.333000000     4.997000000
H    -0.569000000    -2.809000000     5.796000000
H    -0.519000000    -4.240000000     5.304000000
O    -0.591000000    -7.219000000    -1.090000000
H    -0.045000000    -7.997000000    -0.975000000
H    -1.475000000    -7.512000000    -0.867000000
O     2.495000000     1.520000000    -5.462000000
H     3.429000000     1.688000000    -5.588000000
H     2.324000000     1.781000000    -4.557000000
O     1.860000000    -1.217000000    -4.538000000
H     2.367000000    -0.510000000    -4.939000000
H     2.513000000    -1.759000000    -4.096000000
O     2.833000000    -2.682000000    -2.339000000
H     3.072000000    -3.530000000    -1.964000000
H     1.940000000    -2.807000000    -2.662000000
O     5.188000000     4.040000000     3.420000000
H     5.926000000     3.746000000     3.953000000
H     4.445000000     3.523000000     3.731000000
O     0.762000000     7.489000000     0.366000000
H     0.557000000     8.372000000     0.059000000
H     1.353000000     7.135000000    -0.298000000
O     0.894000000     3.469000000     2.672000000
H     0.413000000     3.330000000     3.488000000
H     1.810000000     3.316000000     2.905000000
O     2.175000000     1.782000000     6.349000000
H     2.609000000     2.027000000     7.166000000
H     2.308000000     0.837000000     6.281000000
O    -2.235000000     0.200000000     5.386000000
H    -3.037000000     0.719000000     5.440000000
H    -2.494000000    -0.593000000     4.917000000
O     0.018000000    -4.728000000    -4.879000000
H    -0.901000000    -4.614000000    -5.122000000
H    -0.003000000    -4.909000000    -3.940000000
O     3.540000000     0.483000000    -2.245000000
H     2.982000000    -0.190000000    -1.856000000
H     4.009000000     0.030000000    -2.945000000
O     6.605000000     3.505000000     1.032000000
H     6.274000000     3.364000000     1.919000000
H     5.885000000     3.234000000     0.462000000
O     0.935000000    -4.750000000    -1.693000000
H     0.394000000    -4.113000000    -1.226000000
H     0.329000000    -5.453000000    -1.927000000
O     0.670000000     4.185000000    -1.831000000
H     0.876000000     4.288000000    -2.760000000
H     0.052000000     3.453000000    -1.803000000
O    -0.310000000     4.310000000    -4.544000000
H    -0.757000000     3.591000000    -4.095000000
H    -0.930000000     5.039000000    -4.504000000
O    -4.107000000    -0.194000000     1.351000000
H    -4.488000000    -0.633000000     2.111000000
H    -3.272000000    -0.640000000     1.209000000
O    -1.798000000     0.534000000    -6.303000000
H    -1.507000000    -0.111000000    -5.658000000
H    -1.090000000     0.566000000    -6.946000000
O     2.343000000     4.812000000     0.114000000
H     1.827000000     4.591000000    -0.662000000
H     1.700000000     4.874000000     0.820000000
O    -3.328000000    -7.725000000    -0.750000000
H    -3.529000000    -6.826000000    -1.010000000
H    -4.151000000    -8.200000000    -0.874000000
O    -4.364000000    -2.257000000    -2.307000000
H    -3.435000000    -2.390000000    -2.497000000
H    -4.522000000    -1.337000000    -2.515000000
O    -4.839000000     0.622000000    -2.673000000
H    -4.630000000     0.871000000    -3.573000000
H    -5.455000000     1.292000000    -2.376000000
O    -0.890000000    -1.581000000    -4.839000000
H     0.058000000    -1.526000000    -4.715000000
H    -1.232000000    -1.804000000    -3.973000000
O    -3.717000000    -3.021000000     0.527000000
H    -2.973000000    -3.192000000    -0.050000000
H    -4.480000000    -3.049000000    -0.051000000
O    -2.478000000    -4.060000000    -5.390000000
H    -2.378000000    -3.114000000    -5.279000000
H    -2.930000000    -4.156000000    -6.228000000
O     3.075000000     0.478000000     1.553000000
H     3.240000000    -0.365000000     1.129000000
H     2.195000000     0.722000000     1.265000000
O    -2.523000000     4.500000000     3.802000000
H    -2.574000000     3.779000000     3.175000000
H    -1.728000000     4.325000000     4.305000000
O     0.297000000     7.490000000     3.076000000
H     0.473000000     7.290000000     2.157000000
H     0.161000000     8.437000000     3.094000000
O     1.219000000    -3.050000000     2.780000000
H     0.527000000    -3.056000000     3.442000000
H     0.889000000    -3.616000000     2.083000000
O    -1.402000000     5.845000000     0.882000000
H    -0.685000000     6.376000000     0.537000000
H    -1.891000000     6.441000000     1.449000000
O    -3.132000000     4.498000000    -0.570000000
H    -2.352000000     4.894000000    -0.182000000
H    -2.930000000     3.564000000    -0.614000000
