158
-3065.87099
C     1.321000000    -0.129000000     0.562000000
H     2.307000000    -0.206000000     1.012000000
C     0.175000000    -0.018000000     1.317000000
H     0.139000000    -0.260000000     2.377000000
C    -1.021000000     0.162000000     0.656000000
H    -1.981000000     0.306000000     1.204000000
C    -1.024000000     0.199000000    -0.723000000
H    -1.959000000     0.312000000    -1.266000000
C     0.098000000     0.019000000    -1.408000000
H     0.075000000     0.179000000    -2.483000000
C     1.327000000    -0.148000000    -0.835000000
C     2.594000000    -0.481000000    -1.643000000
O     3.468000000    -1.194000000    -1.143000000
O     2.615000000    -0.345000000    -2.841000000
O     2.148000000     4.720000000    -0.484000000
H     1.473000000     4.041000000    -0.488000000
H     2.214000000     4.998000000    -1.398000000
O     4.992000000     0.251000000    -6.367000000
H     4.727000000    -0.531000000    -5.882000000
H     5.380000000     0.823000000    -5.705000000
O     3.770000000    -5.595000000    -3.975000000
H     4.048000000    -4.977000000    -4.651000000
H     3.574000000    -5.047000000    -3.215000000
O     4.361000000    -1.953000000     1.194000000
H     4.034000000    -1.858000000     0.299000000
H     4.489000000    -1.055000000     1.498000000
O     6.120000000    -1.197000000    -1.765000000
H     5.286000000    -1.279000000    -1.302000000
H     6.176000000    -0.269000000    -1.995000000
O    -6.564000000     1.138000000     1.064000000
H    -7.439000000     0.807000000     0.862000000
H    -5.969000000     0.478000000     0.707000000
O     0.126000000    -4.548000000    -3.902000000
H     0.001000000    -3.980000000    -3.142000000
H     0.589000000    -4.001000000    -4.536000000
O     0.178000000     2.866000000    -0.123000000
H    -0.611000000     3.180000000    -0.566000000
H     0.061000000     1.917000000    -0.070000000
O     4.222000000     2.589000000    -0.951000000
H     3.480000000     3.132000000    -0.687000000
H     4.593000000     2.272000000    -0.127000000
O    -3.664000000    -2.832000000     1.040000000
H    -3.689000000    -3.683000000     1.479000000
H    -3.021000000    -2.326000000     1.536000000
O    -5.202000000    -1.008000000    -0.089000000
H    -4.950000000    -1.672000000     0.553000000
H    -4.885000000    -1.352000000    -0.925000000
O     1.819000000     1.270000000     6.327000000
H     1.281000000     2.061000000     6.344000000
H     2.545000000     1.461000000     6.921000000
O     4.571000000    -3.691000000    -5.842000000
H     4.670000000    -2.762000000    -5.634000000
H     5.067000000    -3.809000000    -6.652000000
O    -0.534000000    -2.045000000     4.239000000
H    -0.452000000    -2.930000000     3.885000000
H    -0.652000000    -2.174000000     5.181000000
O    -0.743000000     2.309000000    -4.045000000
H     0.211000000     2.264000000    -3.977000000
H    -0.994000000     1.480000000    -4.452000000
O    -3.018000000     5.390000000    -0.324000000
H    -3.050000000     4.857000000     0.470000000
H    -2.536000000     4.853000000    -0.953000000
O     5.720000000    -4.992000000     0.239000000
H     5.486000000    -4.088000000     0.447000000
H     4.881000000    -5.449000000     0.180000000
O     1.356000000    -2.085000000    -4.455000000
H     1.636000000    -1.684000000    -3.632000000
H     1.626000000    -1.462000000    -5.129000000
O    -0.750000000     1.546000000     4.268000000
H    -0.192000000     2.266000000     3.974000000
H    -0.136000000     0.855000000     4.520000000
O    -5.970000000     2.493000000     3.619000000
H    -6.040000000     1.892000000     2.878000000
H    -5.101000000     2.324000000     3.983000000
O     0.146000000     3.550000000     2.455000000
H    -0.713000000     3.895000000     2.697000000
H     0.074000000     3.362000000     1.519000000
O     0.528000000    -4.793000000     4.670000000
H     0.885000000    -4.608000000     3.802000000
H    -0.272000000    -5.290000000     4.500000000
O     2.256000000    -1.731000000     3.688000000
H     1.502000000    -1.565000000     4.254000000
H     2.651000000    -0.870000000     3.554000000
O    -3.383000000     2.163000000     4.492000000
H    -2.428000000     2.210000000     4.530000000
H    -3.645000000     1.908000000     5.377000000
O     2.105000000     2.150000000    -3.722000000
H     2.727000000     2.688000000    -3.231000000
H     2.359000000     1.249000000    -3.523000000
O     3.394000000    -3.916000000    -2.043000000
H     3.576000000    -2.976000000    -2.053000000
H     2.864000000    -4.048000000    -1.257000000
O     0.056000000    -1.263000000     6.806000000
H     0.659000000    -0.526000000     6.704000000
H    -0.021000000    -1.379000000     7.753000000
O     1.641000000    -4.033000000     2.148000000
H     2.339000000    -4.329000000     1.563000000
H     1.956000000    -3.197000000     2.493000000
O     6.353000000     1.469000000    -2.042000000
H     7.070000000     1.982000000    -1.668000000
H     5.560000000     1.868000000    -1.682000000
O     3.307000000     0.644000000     3.231000000
H     3.413000000     1.471000000     3.703000000
H     3.889000000     0.725000000     2.476000000
O    -0.827000000    -4.300000000     1.238000000
H     0.078000000    -4.227000000     1.540000000
H    -1.354000000    -4.085000000     2.008000000
O     5.503000000    -2.304000000     3.874000000
H     5.598000000    -2.764000000     3.040000000
H     4.695000000    -1.799000000     3.779000000
O    -0.875000000    -3.129000000    -1.318000000
H    -0.488000000    -2.254000000    -1.287000000
H    -1.205000000    -3.276000000    -0.432000000
O    -1.774000000     0.001000000    -5.104000000
H    -1.283000000    -0.761000000    -5.412000000
H    -2.444000000    -0.363000000    -4.526000000
O     5.355000000     1.083000000     1.366000000
H     6.184000000     0.679000000     1.110000000
H     5.605000000     1.779000000     1.973000000
O    -5.860000000     4.179000000     0.281000000
H    -5.318000000     4.092000000    -0.503000000
H    -5.605000000     3.440000000     0.832000000
O     6.435000000    -5.162000000    -2.478000000
H     6.328000000    -5.246000000    -1.531000000
H     5.656000000    -4.685000000    -2.766000000
O     4.596000000    -1.573000000    -4.235000000
H     3.857000000    -1.084000000    -3.873000000
H     5.211000000    -1.652000000    -3.506000000
O    -3.905000000    -3.019000000    -2.039000000
H    -3.497000000    -3.399000000    -2.817000000
H    -3.263000000    -3.151000000    -1.342000000
O    -2.757000000    -4.528000000     3.222000000
H    -3.375000000    -5.249000000     3.097000000
H    -2.523000000    -4.571000000     4.149000000
O     2.231000000     0.018000000    -6.816000000
H     3.187000000     0.008000000    -6.844000000
H     1.963000000    -0.334000000    -7.665000000
O     3.015000000     3.505000000     2.828000000
H     3.115000000     4.384000000     2.463000000
H     2.081000000     3.314000000     2.742000000
O    -2.511000000     4.492000000     2.597000000
H    -2.994000000     4.055000000     3.298000000
H    -2.992000000     5.306000000     2.447000000
O    -2.949000000    -1.018000000     3.174000000
H    -2.244000000    -1.503000000     3.604000000
H    -2.696000000    -0.099000000     3.262000000
O    -4.816000000    -2.515000000     4.847000000
H    -4.090000000    -2.332000000     5.443000000
H    -4.580000000    -2.065000000     4.036000000
O    -2.035000000     3.199000000    -1.929000000
H    -1.863000000     2.807000000    -2.785000000
H    -2.612000000     2.573000000    -1.490000000
O     2.084000000     2.868000000    -6.390000000
H     2.315000000     2.934000000    -5.463000000
H     2.284000000     1.962000000    -6.622000000
O    -4.352000000     1.529000000    -1.065000000
H    -5.187000000     1.677000000    -1.509000000
H    -4.417000000     0.637000000    -0.724000000
