158
-3056.80042
C    -0.858000000    -1.241000000     0.240000000
H    -1.490000000    -2.046000000     0.608000000
C    -0.926000000     0.006000000     0.958000000
H    -1.603000000     0.101000000     1.803000000
C    -0.118000000     1.050000000     0.597000000
H    -0.102000000     2.010000000     1.177000000
C     0.791000000     0.935000000    -0.461000000
H     1.516000000     1.726000000    -0.635000000
C     0.901000000    -0.251000000    -1.169000000
H     1.647000000    -0.353000000    -1.953000000
C     0.104000000    -1.326000000    -0.746000000
C     0.318000000    -2.663000000    -1.384000000
O     0.139000000    -3.613000000    -0.685000000
O     0.538000000    -2.735000000    -2.570000000
O    -4.187000000     2.205000000    -3.254000000
H    -3.986000000     1.627000000    -3.990000000
H    -4.089000000     1.650000000    -2.480000000
O     1.016000000    -1.438000000    -4.782000000
H     0.256000000    -0.900000000    -5.007000000
H     0.699000000    -2.024000000    -4.095000000
O    -3.402000000     5.571000000    -0.916000000
H    -3.255000000     5.373000000    -1.841000000
H    -3.552000000     4.717000000    -0.509000000
O     2.813000000    -3.518000000     3.864000000
H     2.971000000    -4.429000000     4.113000000
H     2.785000000    -3.532000000     2.907000000
O    -2.152000000    -5.045000000     0.126000000
H    -1.384000000    -4.525000000    -0.112000000
H    -1.921000000    -5.442000000     0.966000000
O     4.763000000     2.973000000     0.825000000
H     4.010000000     2.871000000     1.407000000
H     5.113000000     3.839000000     1.036000000
O    -4.583000000    -3.961000000     0.726000000
H    -3.864000000    -4.496000000     0.388000000
H    -5.302000000    -4.580000000     0.855000000
O    -4.587000000    -1.208000000     1.198000000
H    -4.371000000    -2.138000000     1.130000000
H    -4.774000000    -1.074000000     2.128000000
O     1.313000000    -6.433000000    -0.885000000
H     0.772000000    -7.210000000    -1.025000000
H     0.693000000    -5.704000000    -0.905000000
O     0.188000000     1.582000000     4.207000000
H    -0.713000000     1.680000000     3.899000000
H     0.259000000     0.658000000     4.450000000
O    -4.204000000    -5.125000000    -3.002000000
H    -4.432000000    -5.156000000    -3.931000000
H    -3.262000000    -4.958000000    -2.991000000
O     0.327000000     6.448000000     1.087000000
H     0.041000000     6.534000000     0.178000000
H     1.270000000     6.296000000     1.028000000
O     1.112000000    -1.494000000     3.373000000
H     0.695000000    -1.746000000     2.548000000
H     1.556000000    -2.289000000     3.669000000
O     4.746000000     1.491000000     5.543000000
H     3.879000000     1.836000000     5.757000000
H     4.580000000     0.826000000     4.875000000
O    -0.306000000     6.210000000     5.189000000
H    -1.001000000     5.959000000     4.581000000
H    -0.168000000     7.143000000     5.023000000
O    -2.296000000     0.751000000     5.990000000
H    -2.268000000     1.208000000     6.831000000
H    -1.464000000     0.281000000     5.945000000
O     4.122000000    -5.693000000     0.994000000
H     3.362000000    -6.274000000     1.037000000
H     4.605000000    -5.871000000     1.801000000
O     4.553000000    -3.663000000    -3.826000000
H     4.703000000    -2.879000000    -3.298000000
H     3.761000000    -4.052000000    -3.457000000
O    -2.495000000    -2.603000000     4.027000000
H    -2.113000000    -2.425000000     4.886000000
H    -1.913000000    -3.255000000     3.637000000
O    -4.501000000     4.206000000     2.807000000
H    -4.349000000     3.950000000     1.897000000
H    -4.435000000     3.389000000     3.300000000
O    -1.515000000    -4.536000000    -5.419000000
H    -1.272000000    -4.944000000    -4.588000000
H    -0.724000000    -4.076000000    -5.700000000
O    -1.463000000    -6.368000000     2.465000000
H    -2.275000000    -6.564000000     2.932000000
H    -1.030000000    -7.216000000     2.372000000
O    -1.294000000     7.322000000    -1.197000000
H    -2.007000000     6.712000000    -1.009000000
H    -1.675000000     8.188000000    -1.053000000
O    -0.277000000    -1.690000000    -7.808000000
H     0.245000000    -2.195000000    -7.184000000
H     0.110000000    -1.889000000    -8.661000000
O     0.144000000    -0.699000000     5.925000000
H     0.704000000    -1.066000000     5.241000000
H    -0.378000000    -1.441000000     6.231000000
O     3.190000000    -1.016000000    -6.547000000
H     3.383000000    -1.954000000    -6.528000000
H     2.347000000    -0.937000000    -6.102000000
O     1.972000000    -3.953000000     1.363000000
H     2.593000000    -4.485000000     0.865000000
H     1.393000000    -3.576000000     0.700000000
O     0.983000000    -6.865000000    -4.875000000
H     1.542000000    -6.602000000    -5.606000000
H     1.026000000    -6.130000000    -4.264000000
O     2.980000000     3.595000000     2.861000000
H     2.841000000     3.100000000     3.669000000
H     2.853000000     4.509000000     3.115000000
O    -1.131000000     3.827000000     6.264000000
H    -0.829000000     4.729000000     6.154000000
H    -0.954000000     3.410000000     5.421000000
O     3.042000000     0.571000000     2.271000000
H     2.645000000    -0.263000000     2.521000000
H     2.349000000     1.217000000     2.408000000
O    -4.390000000     1.727000000     4.383000000
H    -4.534000000     0.801000000     4.189000000
H    -3.644000000     1.733000000     4.984000000
O     3.337000000     1.042000000    -4.508000000
H     3.918000000     0.452000000    -4.989000000
H     2.699000000     0.462000000    -4.091000000
O    -4.664000000    -0.981000000     3.840000000
H    -3.879000000    -1.527000000     3.889000000
H    -5.387000000    -1.586000000     4.007000000
O     1.849000000    -4.779000000    -3.320000000
H     1.758000000    -5.222000000    -2.477000000
H     1.451000000    -3.919000000    -3.183000000
O    -6.507000000    -0.826000000    -1.004000000
H    -6.350000000    -1.728000000    -1.285000000
H    -5.645000000    -0.412000000    -1.034000000
O     5.277000000     3.455000000    -4.810000000
H     4.749000000     2.733000000    -4.469000000
H     4.636000000     4.102000000    -5.104000000
O     4.434000000     0.498000000    -0.044000000
H     3.753000000     0.472000000     0.628000000
H     4.688000000     1.420000000    -0.092000000
O     1.123000000     2.564000000    -5.577000000
H     1.730000000     1.848000000    -5.392000000
H     0.591000000     2.246000000    -6.307000000
O    -3.960000000     0.724000000    -0.675000000
H    -4.491000000     0.262000000    -0.026000000
H    -3.287000000     0.092000000    -0.927000000
O     2.352000000     2.578000000     5.248000000
H     1.621000000     2.008000000     5.009000000
H     1.936000000     3.396000000     5.523000000
O    -1.199000000    -4.937000000    -2.756000000
H    -1.511000000    -5.103000000    -1.866000000
H    -0.583000000    -4.210000000    -2.663000000
O     1.063000000    -3.809000000    -6.114000000
H     1.375000000    -3.184000000    -5.460000000
H     1.685000000    -4.535000000    -6.068000000
O    -1.484000000     4.807000000     3.146000000
H    -2.319000000     4.475000000     2.817000000
H    -1.222000000     5.471000000     2.509000000
O     5.018000000    -1.455000000    -1.903000000
H     5.669000000    -1.823000000    -1.306000000
H     4.738000000    -0.643000000    -1.481000000
O    -2.771000000     2.952000000     0.536000000
H    -3.111000000     2.249000000    -0.017000000
H    -1.820000000     2.843000000     0.502000000
O    -1.279000000     3.171000000    -3.974000000
H    -1.802000000     2.430000000    -4.279000000
H    -0.579000000     3.253000000    -4.622000000
O    -0.127000000    -4.295000000     3.298000000
H    -0.556000000    -5.068000000     2.930000000
H     0.733000000    -4.277000000     2.878000000
