158
-3026.66526
C    -0.138000000    -1.046000000     0.828000000
H    -0.263000000    -1.818000000     1.582000000
C    -0.443000000     0.199000000     1.228000000
H    -0.754000000     0.401000000     2.250000000
C    -0.269000000     1.153000000     0.287000000
H    -0.437000000     2.213000000     0.624000000
C     0.123000000     0.836000000    -1.005000000
H     0.239000000     1.550000000    -1.816000000
C     0.556000000    -0.459000000    -1.300000000
H     1.104000000    -0.660000000    -2.217000000
C     0.385000000    -1.445000000    -0.397000000
C     0.719000000    -2.914000000    -0.718000000
O     0.394000000    -3.799000000     0.048000000
O     1.392000000    -3.173000000    -1.706000000
O     4.465000000    -2.283000000    -0.401000000
H     4.274000000    -2.964000000     0.244000000
H     4.166000000    -1.472000000     0.011000000
O    -3.880000000     2.976000000    -1.477000000
H    -4.046000000     2.397000000    -0.733000000
H    -4.649000000     3.543000000    -1.515000000
O     5.213000000    -6.079000000    -2.663000000
H     4.761000000    -5.543000000    -2.011000000
H     5.047000000    -6.981000000    -2.388000000
O    -0.239000000    -2.406000000    -3.967000000
H     0.092000000    -1.574000000    -4.307000000
H     0.526000000    -2.823000000    -3.570000000
O    -2.900000000     5.737000000    -0.490000000
H    -3.701000000     5.683000000     0.031000000
H    -3.099000000     5.243000000    -1.286000000
O     4.026000000    -4.259000000     1.861000000
H     4.635000000    -4.480000000     2.565000000
H     3.387000000    -4.971000000     1.864000000
O    -5.223000000     4.843000000     0.469000000
H    -5.977000000     5.385000000     0.704000000
H    -5.588000000     3.967000000     0.342000000
O     2.500000000    -2.488000000     3.938000000
H     2.063000000    -2.912000000     3.199000000
H     3.261000000    -3.041000000     4.116000000
O    -1.899000000    -5.018000000     0.598000000
H    -0.996000000    -4.805000000     0.361000000
H    -1.859000000    -5.228000000     1.531000000
O     3.206000000     2.984000000     0.035000000
H     2.714000000     3.014000000     0.855000000
H     3.745000000     3.775000000     0.050000000
O    -3.371000000    -2.458000000    -0.437000000
H    -3.582000000    -3.275000000    -0.888000000
H    -2.780000000    -2.720000000     0.269000000
O    -3.684000000     0.336000000    -0.095000000
H    -3.329000000    -0.547000000    -0.199000000
H    -4.331000000     0.253000000     0.605000000
O    -4.600000000     6.037000000     3.074000000
H    -4.958000000     5.423000000     3.715000000
H    -4.741000000     5.610000000     2.229000000
O     1.070000000    -7.824000000    -0.314000000
H     0.207000000    -8.121000000    -0.023000000
H     1.464000000    -8.595000000    -0.721000000
O    -2.603000000     2.327000000     5.843000000
H    -2.410000000     3.249000000     5.676000000
H    -3.150000000     2.059000000     5.104000000
O    -0.737000000    -4.079000000     5.374000000
H    -0.333000000    -3.968000000     4.514000000
H    -0.603000000    -5.003000000     5.584000000
O     0.580000000    -0.327000000    -5.405000000
H     1.445000000     0.026000000    -5.194000000
H     0.136000000     0.387000000    -5.863000000
O     2.119000000     0.085000000     2.785000000
H     2.228000000    -0.654000000     3.385000000
H     1.186000000     0.084000000     2.571000000
O    -0.617000000     5.368000000     1.720000000
H    -0.191000000     6.158000000     2.053000000
H    -1.032000000     5.646000000     0.904000000
O    -4.262000000     2.205000000     3.422000000
H    -3.653000000     2.493000000     2.742000000
H    -4.310000000     1.255000000     3.314000000
O     2.558000000    -6.582000000     1.652000000
H     2.034000000    -6.642000000     0.853000000
H     2.575000000    -7.476000000     1.995000000
O     2.409000000    -3.643000000    -4.179000000
H     2.370000000    -3.534000000    -3.229000000
H     2.455000000    -4.590000000    -4.310000000
O     4.436000000     4.330000000    -2.678000000
H     3.535000000     4.159000000    -2.951000000
H     4.875000000     3.483000000    -2.755000000
O    -1.351000000    -6.152000000     2.966000000
H    -2.077000000    -5.849000000     3.511000000
H    -0.687000000    -6.443000000     3.591000000
O     2.380000000     6.067000000     3.169000000
H     1.652000000     6.656000000     2.967000000
H     2.136000000     5.236000000     2.761000000
O    -1.300000000    -8.055000000     1.041000000
H    -1.370000000    -8.927000000     1.428000000
H    -1.357000000    -7.456000000     1.786000000
O     3.138000000    -1.582000000    -5.498000000
H     3.631000000    -1.095000000    -4.837000000
H     2.814000000    -2.354000000    -5.034000000
O    -3.490000000    -6.944000000    -0.645000000
H    -2.929000000    -7.569000000    -0.186000000
H    -3.082000000    -6.093000000    -0.483000000
O     3.230000000    -4.799000000    -1.026000000
H     2.505000000    -4.216000000    -1.249000000
H     3.436000000    -4.588000000    -0.115000000
O    -0.304000000    -7.309000000    -4.734000000
H     0.208000000    -6.891000000    -5.427000000
H    -0.300000000    -6.674000000    -4.017000000
O     2.739000000     2.956000000     2.760000000
H     2.862000000     2.051000000     2.474000000
H     2.083000000     2.901000000     3.455000000
O     3.940000000     0.340000000     0.939000000
H     3.155000000     0.179000000     1.463000000
H     3.748000000     1.147000000     0.461000000
O     3.055000000     1.443000000    -4.990000000
H     3.446000000     0.985000000    -5.734000000
H     3.773000000     1.537000000    -4.364000000
O    -4.484000000    -0.763000000     2.814000000
H    -4.375000000    -0.942000000     3.748000000
H    -5.103000000    -1.427000000     2.513000000
O    -0.109000000    -5.503000000    -2.015000000
H     0.506000000    -6.172000000    -1.716000000
H     0.191000000    -4.696000000    -1.597000000
O     3.324000000     1.170000000    -2.131000000
H     3.395000000     1.848000000    -1.459000000
H     2.391000000     0.958000000    -2.159000000
O     5.884000000    -3.418000000    -3.454000000
H     5.543000000    -4.228000000    -3.076000000
H     5.256000000    -2.746000000    -3.189000000
O     1.970000000     3.778000000    -3.979000000
H     1.101000000     3.688000000    -3.588000000
H     2.151000000     2.919000000    -4.362000000
O    -2.325000000     0.644000000    -2.886000000
H    -2.327000000    -0.311000000    -2.957000000
H    -2.682000000     0.821000000    -2.016000000
O     1.003000000     3.480000000     4.627000000
H     0.093000000     3.210000000     4.754000000
H     1.003000000     4.418000000     4.815000000
O    -2.009000000    -4.348000000    -3.581000000
H    -1.551000000    -4.961000000    -3.006000000
H    -1.454000000    -3.568000000    -3.591000000
O    -0.099000000    -3.695000000    -6.313000000
H    -0.348000000    -3.116000000    -5.593000000
H     0.803000000    -3.947000000    -6.117000000
O    -1.921000000     4.439000000     3.885000000
H    -2.710000000     4.156000000     3.422000000
H    -1.247000000     4.477000000     3.207000000
O     4.279000000    -1.129000000    -2.927000000
H     3.917000000    -1.538000000    -2.141000000
H     4.020000000    -0.210000000    -2.859000000
O    -2.875000000     3.123000000     1.246000000
H    -2.829000000     3.883000000     0.666000000
H    -2.698000000     2.375000000     0.675000000
O    -0.647000000     2.510000000    -3.999000000
H    -0.681000000     2.252000000    -4.920000000
H    -1.089000000     1.800000000    -3.534000000
O     0.513000000    -4.109000000     2.671000000
H    -0.021000000    -4.903000000     2.641000000
H     0.784000000    -3.968000000     1.764000000
O    -2.595000000     4.970000000    -3.563000000
H    -2.200000000     5.840000000    -3.620000000
H    -1.853000000     4.367000000    -3.601000000
