158
-3059.53108
C     0.701000000    -1.255000000     0.369000000
H     1.281000000    -2.121000000     0.678000000
C     0.017000000    -0.445000000     1.270000000
H    -0.019000000    -0.738000000     2.316000000
C    -0.635000000     0.688000000     0.804000000
H    -1.124000000     1.392000000     1.581000000
C    -0.601000000     0.967000000    -0.585000000
H    -1.171000000     1.818000000    -0.948000000
C    -0.017000000     0.158000000    -1.470000000
H    -0.006000000     0.447000000    -2.518000000
C     0.731000000    -0.952000000    -1.008000000
C     1.538000000    -1.769000000    -1.996000000
O     2.293000000    -2.571000000    -1.532000000
O     1.170000000    -1.930000000    -3.149000000
O     4.452000000    -0.910000000    -6.862000000
H     3.853000000    -1.613000000    -6.609000000
H     5.272000000    -1.122000000    -6.417000000
O     4.826000000    -6.304000000    -4.024000000
H     4.862000000    -6.159000000    -4.970000000
H     4.079000000    -5.784000000    -3.730000000
O    -2.745000000     3.257000000    -4.460000000
H    -2.735000000     2.300000000    -4.458000000
H    -3.663000000     3.487000000    -4.314000000
O     5.273000000    -0.466000000     1.709000000
H     5.056000000    -1.387000000     1.567000000
H     4.842000000    -0.005000000     0.989000000
O     4.677000000    -1.902000000    -1.169000000
H     3.848000000    -2.323000000    -1.397000000
H     4.707000000    -1.119000000    -1.719000000
O    -6.785000000     0.446000000     1.044000000
H    -7.560000000    -0.116000000     1.031000000
H    -6.060000000    -0.141000000     0.830000000
O     0.136000000    -4.398000000    -3.223000000
H     0.348000000    -3.467000000    -3.149000000
H    -0.312000000    -4.606000000    -2.403000000
O     1.721000000     3.450000000    -0.827000000
H     1.384000000     3.037000000    -1.622000000
H     0.979000000     3.946000000    -0.482000000
O    -4.985000000    -1.472000000     0.366000000
H    -4.060000000    -1.584000000     0.146000000
H    -5.230000000    -2.291000000     0.796000000
O    -0.010000000     4.402000000     6.204000000
H    -0.096000000     5.167000000     5.635000000
H    -0.813000000     3.902000000     6.057000000
O     3.261000000    -7.648000000    -0.099000000
H     3.501000000    -6.722000000    -0.091000000
H     2.478000000    -7.698000000     0.448000000
O     0.111000000     0.701000000     5.034000000
H     0.273000000     1.212000000     5.827000000
H     0.172000000     1.338000000     4.323000000
O    -3.714000000    -1.780000000     3.840000000
H    -3.746000000    -2.726000000     3.694000000
H    -3.168000000    -1.446000000     3.129000000
O    -0.084000000     1.953000000    -5.708000000
H     0.645000000     1.334000000    -5.673000000
H    -0.855000000     1.427000000    -5.495000000
O     1.483000000    -5.777000000     2.844000000
H     1.903000000    -5.308000000     2.123000000
H     2.114000000    -6.455000000     3.088000000
O    -1.544000000     5.034000000    -0.364000000
H    -1.337000000     4.790000000    -1.267000000
H    -2.460000000     4.778000000    -0.252000000
O     2.233000000    -4.341000000     5.599000000
H     3.108000000    -4.502000000     5.247000000
H     1.992000000    -3.480000000     5.257000000
O     2.026000000     2.548000000     6.767000000
H     1.427000000     3.123000000     6.289000000
H     2.820000000     2.532000000     6.233000000
O     6.323000000    -3.598000000     0.201000000
H     5.778000000    -3.053000000    -0.366000000
H     6.900000000    -2.978000000     0.646000000
O    -0.510000000    -1.600000000    -5.431000000
H     0.149000000    -1.179000000    -5.984000000
H    -0.038000000    -1.835000000    -4.632000000
O     1.688000000     4.429000000    -3.955000000
H     2.289000000     5.045000000    -4.375000000
H     1.366000000     3.882000000    -4.671000000
O    -1.811000000    -4.937000000    -1.388000000
H    -2.617000000    -5.308000000    -1.746000000
H    -2.074000000    -4.556000000    -0.550000000
O    -2.813000000     3.632000000     5.138000000
H    -2.592000000     4.562000000     5.093000000
H    -3.698000000     3.578000000     4.776000000
O    -5.429000000     2.195000000     2.855000000
H    -5.771000000     1.657000000     2.141000000
H    -5.469000000     1.627000000     3.624000000
O    -0.938000000     4.173000000     2.192000000
H    -1.821000000     3.809000000     2.262000000
H    -0.951000000     4.674000000     1.376000000
O    -0.799000000    -3.553000000     5.588000000
H     0.057000000    -3.969000000     5.692000000
H    -0.838000000    -3.316000000     4.661000000
O     1.723000000    -1.709000000     4.392000000
H     1.324000000    -0.935000000     4.789000000
H     2.528000000    -1.383000000     3.989000000
O     2.068000000     0.230000000    -5.217000000
H     3.012000000     0.172000000    -5.362000000
H     1.856000000    -0.548000000    -4.702000000
O     2.919000000    -4.484000000    -3.412000000
H     2.707000000    -3.705000000    -2.897000000
H     2.070000000    -4.889000000    -3.593000000
O     0.015000000    -3.603000000     2.765000000
H     0.220000000    -4.537000000     2.731000000
H     0.828000000    -3.189000000     3.055000000
O     3.783000000     2.435000000     2.596000000
H     2.904000000     2.638000000     2.916000000
H     3.653000000     2.184000000     1.681000000
O    -2.268000000    -3.493000000     1.125000000
H    -1.426000000    -3.425000000     1.576000000
H    -2.855000000    -3.885000000     1.772000000
O     3.818000000    -0.059000000     4.002000000
H     4.133000000    -0.098000000     3.099000000
H     3.778000000     0.877000000     4.201000000
O    -2.696000000    -1.650000000    -1.019000000
H    -1.977000000    -1.018000000    -1.005000000
H    -2.451000000    -2.306000000    -0.367000000
O    -2.416000000     0.352000000    -4.789000000
H    -1.597000000    -0.117000000    -4.945000000
H    -3.023000000    -0.003000000    -5.438000000
O     4.023000000     1.235000000    -0.010000000
H     3.228000000     1.713000000    -0.248000000
H     4.531000000     1.196000000    -0.821000000
O     0.630000000     6.246000000     4.170000000
H     0.571000000     6.372000000     3.223000000
H     1.504000000     6.562000000     4.400000000
O    -1.917000000    -4.361000000    -5.397000000
H    -1.597000000    -3.471000000    -5.545000000
H    -1.539000000    -4.614000000    -4.555000000
O    -4.111000000     5.219000000    -1.519000000
H    -4.804000000     5.604000000    -0.982000000
H    -4.023000000     5.818000000    -2.260000000
O     3.040000000    -2.971000000    -6.024000000
H     2.116000000    -3.154000000    -6.197000000
H     3.079000000    -2.808000000    -5.081000000
O    -4.309000000    -2.097000000    -3.292000000
H    -3.779000000    -2.074000000    -4.088000000
H    -3.710000000    -1.825000000    -2.597000000
O    -1.916000000     6.126000000     4.643000000
H    -1.079000000     5.912000000     4.231000000
H    -2.385000000     6.633000000     3.981000000
O     0.626000000     6.548000000     1.194000000
H     0.671000000     7.424000000     0.812000000
H     0.305000000     5.993000000     0.483000000
O     1.341000000     3.307000000     3.415000000
H     1.607000000     4.201000000     3.632000000
H     0.503000000     3.410000000     2.964000000
O    -3.447000000     2.914000000     1.308000000
H    -4.240000000     2.882000000     1.843000000
H    -3.519000000     2.157000000     0.727000000
O    -5.151000000     0.130000000     4.983000000
H    -4.391000000    -0.419000000     4.786000000
H    -4.988000000     0.455000000     5.868000000
O     3.230000000    -4.616000000     0.698000000
H     4.154000000    -4.388000000     0.801000000
H     2.942000000    -4.112000000    -0.064000000
O    -0.868000000     3.716000000    -2.674000000
H    -0.289000000     4.043000000    -3.363000000
H    -1.663000000     3.450000000    -3.136000000
