158
-3018.26403
C    -0.740000000    -1.303000000     0.206000000
H    -1.357000000    -2.181000000     0.381000000
C    -0.616000000    -0.329000000     1.135000000
H    -1.125000000    -0.289000000     2.095000000
C     0.148000000     0.839000000     0.867000000
H     0.274000000     1.562000000     1.654000000
C     0.765000000     1.049000000    -0.307000000
H     1.239000000     1.982000000    -0.599000000
C     0.606000000     0.035000000    -1.258000000
H     1.043000000     0.298000000    -2.218000000
C    -0.192000000    -1.159000000    -1.053000000
C    -0.287000000    -2.242000000    -2.111000000
O    -0.585000000    -3.419000000    -1.865000000
O    -0.132000000    -1.952000000    -3.247000000
O    -1.717000000     1.660000000    -4.329000000
H    -2.667000000     1.669000000    -4.451000000
H    -1.598000000     1.575000000    -3.383000000
O     0.940000000     1.980000000    -5.479000000
H     1.098000000     1.198000000    -6.009000000
H     0.131000000     1.788000000    -5.005000000
O    -2.164000000    -4.547000000    -0.249000000
H    -1.593000000    -4.092000000    -0.868000000
H    -1.825000000    -4.304000000     0.613000000
O     4.888000000     5.427000000     0.832000000
H     4.112000000     5.958000000     1.012000000
H     5.608000000     6.058000000     0.799000000
O    -5.278000000    -1.420000000     0.665000000
H    -6.176000000    -1.195000000     0.909000000
H    -4.880000000    -1.732000000     1.478000000
O    -4.015000000     0.718000000    -0.436000000
H    -4.282000000    -0.120000000    -0.059000000
H    -3.908000000     1.297000000     0.318000000
O     1.702000000    -5.098000000    -1.968000000
H     1.242000000    -5.894000000    -2.233000000
H     1.043000000    -4.407000000    -2.032000000
O     1.373000000     3.943000000     5.729000000
H     0.613000000     3.838000000     5.158000000
H     2.012000000     3.313000000     5.397000000
O     4.433000000    -6.002000000    -2.262000000
H     4.459000000    -6.847000000    -2.712000000
H     3.537000000    -5.689000000    -2.392000000
O    -4.611000000    -4.302000000    -1.371000000
H    -4.170000000    -4.250000000    -2.219000000
H    -3.900000000    -4.354000000    -0.733000000
O     1.498000000    -3.414000000     5.174000000
H     2.050000000    -4.192000000     5.250000000
H     1.599000000    -3.136000000     4.263000000
O    -4.528000000    -2.418000000     3.111000000
H    -5.444000000    -2.547000000     3.359000000
H    -4.255000000    -1.641000000     3.599000000
O    -2.901000000    -3.789000000    -3.415000000
H    -2.038000000    -3.585000000    -3.055000000
H    -3.167000000    -2.989000000    -3.869000000
O     5.147000000    -0.453000000     2.778000000
H     4.901000000     0.349000000     3.240000000
H     5.790000000    -0.168000000     2.129000000
O     3.232000000     1.757000000     2.607000000
H     3.690000000     2.589000000     2.728000000
H     2.706000000     1.885000000     1.817000000
O     4.703000000     4.452000000     3.509000000
H     4.150000000     5.047000000     4.015000000
H     4.797000000     4.879000000     2.658000000
O    -2.500000000    -4.316000000     4.005000000
H    -2.947000000    -4.252000000     4.850000000
H    -3.145000000    -4.006000000     3.370000000
O    -0.972000000     1.948000000     4.070000000
H    -1.035000000     1.899000000     5.024000000
H    -0.378000000     1.236000000     3.833000000
O     1.655000000    -0.760000000    -4.808000000
H     2.297000000    -0.790000000    -4.099000000
H     0.938000000    -1.317000000    -4.505000000
O    -3.562000000    -6.875000000     1.270000000
H    -4.391000000    -6.487000000     1.551000000
H    -2.903000000    -6.462000000     1.828000000
O     1.057000000    -0.251000000     4.236000000
H     0.803000000    -0.788000000     4.986000000
H     1.143000000    -0.873000000     3.514000000
O    -3.503000000     5.658000000     1.124000000
H    -3.698000000     5.100000000     0.370000000
H    -2.795000000     5.203000000     1.581000000
O    -1.818000000    -1.635000000    -8.042000000
H    -1.508000000    -1.203000000    -7.245000000
H    -2.527000000    -1.075000000    -8.357000000
O    -0.656000000    -3.937000000     1.999000000
H    -0.882000000    -3.912000000     2.929000000
H    -0.219000000    -4.780000000     1.881000000
O    -0.319000000    -4.097000000    -7.831000000
H    -0.366000000    -4.018000000    -6.878000000
H    -0.583000000    -3.236000000    -8.156000000
O    -0.636000000     2.405000000     6.891000000
H     0.157000000     2.925000000     6.760000000
H    -0.317000000     1.551000000     7.185000000
O     0.350000000    -7.390000000    -3.082000000
H     0.970000000    -7.866000000    -2.528000000
H     0.209000000    -7.966000000    -3.833000000
O     3.328000000     1.519000000     5.287000000
H     3.144000000     1.346000000     4.364000000
H     3.291000000     0.658000000     5.704000000
O    -2.350000000    -7.927000000    -1.318000000
H    -2.342000000    -7.142000000    -0.770000000
H    -1.824000000    -7.692000000    -2.082000000
O     2.869000000    -3.455000000     0.041000000
H     2.944000000    -4.383000000    -0.182000000
H     2.145000000    -3.137000000    -0.497000000
O     0.779000000     0.218000000     7.310000000
H     1.661000000     0.085000000     6.962000000
H     0.643000000    -0.518000000     7.906000000
O     2.198000000    -4.991000000    -6.820000000
H     2.250000000    -4.744000000    -7.743000000
H     1.491000000    -4.452000000    -6.466000000
O     2.644000000     7.042000000     1.899000000
H     2.774000000     6.833000000     2.824000000
H     2.060000000     7.801000000     1.905000000
O    -2.012000000     3.679000000     2.323000000
H    -2.737000000     3.099000000     2.088000000
H    -1.407000000     3.121000000     2.811000000
O     2.855000000     3.849000000    -4.697000000
H     2.469000000     3.113000000    -5.171000000
H     2.906000000     3.548000000    -3.789000000
O    -4.086000000     1.966000000     2.167000000
H    -3.804000000     1.412000000     2.894000000
H    -5.040000000     1.991000000     2.241000000
O    -0.330000000    -4.114000000    -4.901000000
H    -0.867000000    -4.782000000    -4.474000000
H    -0.136000000    -3.484000000    -4.208000000
O     4.106000000     4.369000000    -2.034000000
H     4.540000000     4.276000000    -1.187000000
H     4.776000000     4.133000000    -2.675000000
O    -1.690000000     1.761000000    -1.761000000
H    -2.504000000     1.316000000    -1.525000000
H    -1.061000000     1.477000000    -1.098000000
O    -1.778000000    -0.880000000    -5.214000000
H    -1.188000000    -1.140000000    -4.506000000
H    -1.919000000     0.056000000    -5.076000000
O     2.338000000    -0.590000000    -7.386000000
H     2.084000000    -0.695000000    -6.469000000
H     2.490000000    -1.483000000    -7.696000000
O    -4.154000000    -2.124000000    -5.317000000
H    -3.425000000    -1.614000000    -5.672000000
H    -4.929000000    -1.592000000    -5.499000000
O     3.561000000    -1.450000000    -2.910000000
H     4.240000000    -2.082000000    -2.675000000
H     3.727000000    -0.697000000    -2.343000000
O    -2.964000000     4.125000000    -1.766000000
H    -2.308000000     4.821000000    -1.814000000
H    -2.472000000     3.320000000    -1.928000000
O    -4.049000000     0.054000000     4.319000000
H    -3.488000000    -0.331000000     4.992000000
H    -4.612000000     0.664000000     4.796000000
O     0.412000000    -6.419000000     1.640000000
H     0.938000000    -6.880000000     2.294000000
H     0.705000000    -6.776000000     0.802000000
O     0.269000000     5.432000000    -4.153000000
H     0.707000000     5.806000000    -4.918000000
H     0.121000000     4.515000000    -4.386000000
O     1.540000000    -2.376000000     2.592000000
H     0.754000000    -2.628000000     2.108000000
H     2.254000000    -2.485000000     1.964000000
