158
-3030.75670
C    -1.038000000    -0.841000000     0.664000000
H    -1.827000000    -1.408000000     1.150000000
C    -0.380000000     0.271000000     1.261000000
H    -0.768000000     0.571000000     2.231000000
C     0.607000000     0.952000000     0.518000000
H     1.119000000     1.912000000     0.869000000
C     0.896000000     0.546000000    -0.753000000
H     1.581000000     1.066000000    -1.418000000
C     0.282000000    -0.540000000    -1.373000000
H     0.470000000    -0.861000000    -2.395000000
C    -0.660000000    -1.264000000    -0.595000000
C    -1.246000000    -2.495000000    -1.197000000
O    -1.551000000    -3.381000000    -0.406000000
O    -1.601000000    -2.499000000    -2.371000000
O    -5.261000000    -3.684000000     4.136000000
H    -4.989000000    -3.495000000     5.034000000
H    -4.705000000    -3.125000000     3.594000000
O     3.763000000    -3.216000000    -2.565000000
H     3.565000000    -3.440000000    -3.475000000
H     4.712000000    -3.320000000    -2.494000000
O     2.590000000    -1.063000000     3.876000000
H     2.342000000    -0.144000000     3.773000000
H     3.437000000    -1.033000000     4.321000000
O     2.168000000    -4.820000000    -0.585000000
H     2.724000000    -4.167000000    -1.009000000
H     1.992000000    -5.466000000    -1.269000000
O    -3.979000000    -5.904000000    -0.176000000
H    -3.466000000    -5.339000000     0.402000000
H    -4.885000000    -5.774000000     0.104000000
O     2.657000000    -2.555000000     1.705000000
H     1.755000000    -2.629000000     1.394000000
H     2.639000000    -1.819000000     2.317000000
O    -4.210000000     3.340000000     1.503000000
H    -4.056000000     4.006000000     2.173000000
H    -3.346000000     3.175000000     1.125000000
O     2.125000000     6.686000000     0.942000000
H     2.253000000     7.257000000     1.699000000
H     2.247000000     7.260000000     0.186000000
O     2.461000000     5.461000000    -3.969000000
H     2.038000000     6.282000000    -4.220000000
H     2.009000000     5.193000000    -3.169000000
O     5.446000000     3.371000000    -0.375000000
H     6.179000000     3.893000000    -0.700000000
H     5.820000000     2.847000000     0.334000000
O     5.762000000    -0.804000000    -0.894000000
H     5.534000000    -0.412000000    -0.051000000
H     5.323000000    -0.252000000    -1.542000000
O    -5.345000000     0.707000000     1.539000000
H    -4.967000000     1.562000000     1.336000000
H    -5.788000000     0.833000000     2.378000000
O    -1.555000000     0.363000000     5.625000000
H    -2.424000000    -0.035000000     5.575000000
H    -0.949000000    -0.370000000     5.510000000
O     4.374000000     1.288000000    -2.138000000
H     4.669000000     1.951000000    -1.513000000
H     3.716000000     1.737000000    -2.669000000
O    -0.539000000     7.225000000     1.086000000
H     0.355000000     7.007000000     0.821000000
H    -0.863000000     7.795000000     0.389000000
O     2.583000000     2.482000000    -3.700000000
H     2.960000000     1.974000000    -4.418000000
H     2.767000000     3.393000000    -3.929000000
O    -0.378000000    -2.137000000    -4.759000000
H    -1.076000000    -1.998000000    -5.399000000
H    -0.820000000    -2.106000000    -3.911000000
O    -2.224000000    -4.388000000    -4.096000000
H    -1.969000000    -3.834000000    -3.358000000
H    -2.492000000    -5.214000000    -3.695000000
O    -0.476000000     2.108000000    -3.648000000
H     0.454000000     2.163000000    -3.429000000
H    -0.676000000     2.953000000    -4.053000000
O    -3.079000000    -6.542000000    -2.674000000
H    -3.253000000    -7.478000000    -2.770000000
H    -3.417000000    -6.324000000    -1.805000000
O     5.227000000    -0.886000000    -4.284000000
H     5.128000000    -0.177000000    -4.919000000
H     4.628000000    -0.657000000    -3.573000000
O    -2.092000000     2.375000000    -1.173000000
H    -1.673000000     2.162000000    -2.007000000
H    -1.856000000     1.650000000    -0.595000000
O    -3.344000000    -5.828000000     3.834000000
H    -3.991000000    -5.367000000     4.367000000
H    -3.377000000    -5.389000000     2.984000000
O    -1.290000000     3.514000000     4.222000000
H    -0.417000000     3.735000000     3.899000000
H    -1.164000000     2.711000000     4.726000000
O     1.603000000    -4.532000000    -4.609000000
H     1.283000000    -4.334000000    -5.489000000
H     1.028000000    -4.035000000    -4.027000000
O     0.637000000     5.152000000    -2.024000000
H     0.145000000     5.931000000    -1.764000000
H    -0.035000000     4.513000000    -2.261000000
O     0.322000000    -4.272000000     1.334000000
H    -0.321000000    -3.856000000     0.761000000
H     0.901000000    -4.749000000     0.739000000
O    -3.884000000    -1.838000000     2.978000000
H    -3.808000000    -1.350000000     3.798000000
H    -4.451000000    -1.297000000     2.429000000
O    -3.192000000    -4.103000000     1.734000000
H    -3.269000000    -3.280000000     2.217000000
H    -2.630000000    -3.892000000     0.989000000
O    -6.317000000    -4.258000000    -3.699000000
H    -5.544000000    -3.741000000    -3.474000000
H    -6.318000000    -4.976000000    -3.066000000
O     3.473000000     0.789000000    -5.763000000
H     3.268000000     1.346000000    -6.514000000
H     2.931000000     0.009000000    -5.889000000
O     0.060000000    -1.954000000     5.663000000
H    -0.028000000    -2.571000000     4.937000000
H     1.004000000    -1.839000000     5.766000000
O     4.794000000     1.414000000     2.542000000
H     3.917000000     1.769000000     2.398000000
H     4.730000000     0.498000000     2.271000000
O    -0.938000000    -5.822000000    -0.948000000
H    -1.095000000    -4.892000000    -0.787000000
H    -1.697000000    -6.110000000    -1.456000000
O    -0.891000000    -4.159000000     3.745000000
H    -1.621000000    -4.684000000     3.415000000
H    -0.390000000    -3.927000000     2.964000000
O    -2.441000000    -0.304000000    -3.492000000
H    -2.086000000    -1.137000000    -3.180000000
H    -1.708000000     0.115000000    -3.942000000
O     2.845000000    -2.140000000    -6.039000000
H     2.559000000    -1.954000000    -6.934000000
H     2.074000000    -1.964000000    -5.500000000
O    -3.024000000    -2.759000000    -6.414000000
H    -3.007000000    -3.700000000    -6.235000000
H    -3.806000000    -2.444000000    -5.961000000
O     1.142000000     4.053000000     3.285000000
H     1.502000000     4.793000000     3.774000000
H     1.579000000     4.093000000     2.434000000
O     5.112000000     2.078000000     5.283000000
H     5.075000000     1.795000000     4.370000000
H     4.663000000     2.923000000     5.291000000
O    -0.413000000    -7.222000000     1.578000000
H    -0.550000000    -7.177000000     0.631000000
H     0.077000000    -6.427000000     1.786000000
O    -4.865000000    -1.322000000    -4.840000000
H    -4.689000000    -1.328000000    -3.899000000
H    -4.580000000    -0.457000000    -5.132000000
O     1.892000000     1.484000000     4.154000000
H     1.622000000     2.398000000     4.065000000
H     1.577000000     1.225000000     5.020000000
O     2.834000000     4.144000000     1.141000000
H     2.724000000     5.078000000     0.964000000
H     3.703000000     3.936000000     0.798000000
O    -5.452000000    -1.491000000     0.131000000
H    -6.054000000    -2.135000000     0.504000000
H    -5.560000000    -0.715000000     0.680000000
O    -4.607000000    -2.578000000    -2.138000000
H    -3.651000000    -2.622000000    -2.118000000
H    -4.851000000    -2.262000000    -1.269000000
O     7.215000000     1.751000000     1.314000000
H     7.983000000     1.305000000     1.672000000
H     6.497000000     1.493000000     1.892000000
O    -4.841000000     0.496000000    -2.116000000
H    -5.276000000    -0.354000000    -2.063000000
H    -3.907000000     0.286000000    -2.148000000
