158
-3022.93391
C    -0.754000000    -0.256000000     1.179000000
H    -1.291000000    -0.346000000     2.120000000
C     0.126000000     0.792000000     1.002000000
H     0.345000000     1.472000000     1.822000000
C     0.761000000     0.951000000    -0.187000000
H     1.396000000     1.787000000    -0.239000000
C     0.594000000     0.017000000    -1.215000000
H     1.049000000     0.165000000    -2.191000000
C    -0.280000000    -1.065000000    -1.026000000
H    -0.293000000    -1.889000000    -1.735000000
C    -0.903000000    -1.254000000     0.199000000
C    -1.894000000    -2.353000000     0.465000000
O    -2.615000000    -2.327000000     1.424000000
O    -2.079000000    -3.170000000    -0.428000000
O     3.860000000    -2.153000000    -1.619000000
H     3.969000000    -1.331000000    -2.098000000
H     3.009000000    -2.486000000    -1.906000000
O     2.429000000     0.878000000     5.838000000
H     2.629000000     1.085000000     6.751000000
H     3.269000000     0.616000000     5.462000000
O     2.047000000    -1.826000000     1.684000000
H     1.258000000    -1.555000000     1.215000000
H     1.771000000    -1.893000000     2.598000000
O    -5.506000000    -6.621000000     0.023000000
H    -4.656000000    -6.285000000    -0.261000000
H    -5.923000000    -6.929000000    -0.781000000
O    -4.511000000     0.193000000    -0.596000000
H    -3.576000000     0.321000000    -0.753000000
H    -4.915000000     1.014000000    -0.877000000
O     1.793000000    -1.970000000     5.336000000
H     0.891000000    -2.258000000     5.470000000
H     1.749000000    -1.015000000     5.380000000
O    -7.059000000    -1.184000000    -0.001000000
H    -6.889000000    -0.244000000    -0.050000000
H    -6.372000000    -1.581000000    -0.537000000
O     1.484000000     6.451000000     0.301000000
H     2.262000000     6.433000000     0.858000000
H     0.872000000     5.850000000     0.725000000
O     3.308000000     5.423000000    -1.915000000
H     3.435000000     4.480000000    -1.808000000
H     2.422000000     5.584000000    -1.589000000
O    -4.786000000    -2.136000000     4.927000000
H    -4.328000000    -2.883000000     4.540000000
H    -5.291000000    -1.765000000     4.204000000
O    -1.707000000     2.448000000     3.340000000
H    -0.970000000     2.095000000     3.837000000
H    -1.306000000     3.050000000     2.712000000
O    -0.929000000     1.842000000    -5.735000000
H    -0.595000000     2.326000000    -4.980000000
H    -1.715000000     1.403000000    -5.410000000
O     3.464000000     2.167000000    -4.983000000
H     3.832000000     2.154000000    -5.866000000
H     2.892000000     2.935000000    -4.973000000
O    -1.443000000     0.500000000     6.201000000
H    -2.143000000     0.130000000     6.739000000
H    -1.183000000    -0.216000000     5.621000000
O    -2.415000000    -4.385000000    -5.577000000
H    -2.367000000    -3.993000000    -4.706000000
H    -2.858000000    -3.727000000    -6.112000000
O     0.940000000     6.096000000     3.567000000
H     1.867000000     5.933000000     3.391000000
H     0.939000000     6.651000000     4.347000000
O    -2.165000000     1.720000000    -1.228000000
H    -2.060000000     2.508000000    -0.695000000
H    -1.370000000     1.212000000    -1.064000000
O     3.682000000     2.850000000    -1.611000000
H     3.843000000     2.219000000    -0.910000000
H     4.055000000     2.442000000    -2.392000000
O     4.082000000    -0.222000000    -3.862000000
H     3.811000000     0.652000000    -4.143000000
H     3.616000000    -0.817000000    -4.449000000
O    -0.562000000    -5.088000000    -1.444000000
H    -0.884000000    -4.330000000    -0.958000000
H     0.368000000    -5.139000000    -1.221000000
O    -0.216000000     3.826000000    -3.748000000
H    -0.339000000     3.530000000    -2.846000000
H    -0.456000000     4.753000000    -3.731000000
O     2.196000000    -1.497000000    -5.543000000
H     1.772000000    -0.805000000    -6.051000000
H     2.355000000    -2.197000000    -6.177000000
O    -4.449000000     3.144000000     1.492000000
H    -4.312000000     2.801000000     2.375000000
H    -3.578000000     3.411000000     1.201000000
O    -2.647000000    -6.862000000     1.844000000
H    -1.843000000    -6.351000000     1.751000000
H    -2.863000000    -7.133000000     0.952000000
O    -4.303000000     1.485000000     3.744000000
H    -4.379000000     0.609000000     3.367000000
H    -3.372000000     1.697000000     3.673000000
O    -1.959000000     4.029000000     0.320000000
H    -1.161000000     4.058000000     0.849000000
H    -2.359000000     4.890000000     0.443000000
O     1.349000000     2.548000000     3.856000000
H     1.720000000     3.402000000     4.077000000
H     1.657000000     1.965000000     4.549000000
O     1.705000000    -2.913000000    -2.929000000
H     1.894000000    -2.347000000    -3.678000000
H     1.564000000    -3.778000000    -3.312000000
O    -1.461000000     5.911000000    -2.835000000
H    -2.397000000     5.727000000    -2.763000000
H    -1.203000000     6.189000000    -1.956000000
O    -0.089000000     4.212000000     2.058000000
H     0.146000000     5.072000000     2.406000000
H     0.439000000     3.596000000     2.566000000
O     0.090000000    -5.332000000     1.424000000
H     0.759000000    -5.735000000     0.871000000
H     0.473000000    -4.497000000     1.694000000
O    -3.489000000    -3.988000000     3.370000000
H    -3.782000000    -4.688000000     2.787000000
H    -3.215000000    -3.285000000     2.782000000
O    -5.822000000    -3.028000000    -3.717000000
H    -4.942000000    -3.110000000    -4.083000000
H    -5.690000000    -3.049000000    -2.769000000
O     6.363000000     1.224000000    -3.649000000
H     5.688000000     0.551000000    -3.559000000
H     6.661000000     1.146000000    -4.555000000
O    -1.034000000    -2.804000000     5.671000000
H    -0.577000000    -3.591000000     5.376000000
H    -1.859000000    -3.126000000     6.034000000
O     3.817000000     0.596000000    -0.041000000
H     4.259000000    -0.229000000    -0.242000000
H     2.937000000     0.336000000     0.233000000
O    -3.066000000    -5.620000000    -0.575000000
H    -2.845000000    -4.703000000    -0.412000000
H    -2.254000000    -6.007000000    -0.902000000
O    -0.544000000    -5.440000000     4.539000000
H    -0.469000000    -6.393000000     4.505000000
H    -0.571000000    -5.169000000     3.621000000
O    -2.542000000    -3.214000000    -3.303000000
H    -2.459000000    -3.407000000    -2.369000000
H    -2.427000000    -2.266000000    -3.363000000
O     3.596000000    -3.888000000     0.555000000
H     3.706000000    -3.322000000    -0.210000000
H     2.890000000    -3.480000000     1.056000000
O    -2.324000000     4.237000000     5.512000000
H    -1.862000000     3.462000000     5.192000000
H    -2.543000000     4.729000000     4.720000000
O     0.000000000    -5.250000000    -4.372000000
H    -0.168000000    -5.435000000    -3.448000000
H    -0.853000000    -4.991000000    -4.722000000
O     4.636000000     3.356000000     3.561000000
H     4.795000000     2.417000000     3.663000000
H     4.187000000     3.611000000     4.367000000
O     3.365000000     5.446000000     2.244000000
H     4.084000000     6.076000000     2.196000000
H     3.761000000     4.659000000     2.618000000
O    -4.428000000    -0.651000000     2.218000000
H    -4.508000000    -0.103000000     1.438000000
H    -4.100000000    -1.488000000     1.890000000
O    -4.893000000    -2.497000000    -1.168000000
H    -4.331000000    -2.964000000    -0.550000000
H    -4.730000000    -1.571000000    -0.990000000
O     6.577000000     3.822000000     1.696000000
H     5.955000000     3.557000000     2.374000000
H     7.209000000     3.105000000     1.657000000
O    -2.698000000    -0.616000000    -2.991000000
H    -3.040000000    -0.286000000    -3.821000000
H    -2.261000000     0.138000000    -2.595000000
