158
-3034.00189
C     0.273000000    -1.331000000    -0.531000000
H     0.599000000    -2.294000000    -0.915000000
C     0.552000000    -0.938000000     0.778000000
H     0.831000000    -1.711000000     1.491000000
C     0.254000000     0.327000000     1.186000000
H     0.447000000     0.579000000     2.243000000
C    -0.308000000     1.220000000     0.276000000
H    -0.677000000     2.187000000     0.607000000
C    -0.459000000     0.900000000    -1.072000000
H    -0.944000000     1.639000000    -1.704000000
C    -0.186000000    -0.387000000    -1.464000000
C    -0.419000000    -0.794000000    -2.908000000
O    -0.556000000    -1.989000000    -3.252000000
O    -0.584000000     0.097000000    -3.742000000
O    -2.018000000    -2.985000000     1.961000000
H    -2.581000000    -3.390000000     2.621000000
H    -2.606000000    -2.426000000     1.455000000
O     3.515000000     0.520000000     0.172000000
H     2.563000000     0.612000000     0.132000000
H     3.805000000     0.624000000    -0.734000000
O     2.604000000    -6.223000000    -3.494000000
H     3.555000000    -6.122000000    -3.472000000
H     2.278000000    -5.364000000    -3.764000000
O    -0.051000000    -0.457000000    -6.259000000
H    -0.077000000    -1.412000000    -6.331000000
H    -0.439000000    -0.272000000    -5.404000000
O     4.496000000    -5.559000000    -0.728000000
H     3.636000000    -5.808000000    -1.067000000
H     4.407000000    -4.633000000    -0.504000000
O    -3.810000000    -0.369000000    -2.149000000
H    -3.478000000     0.117000000    -2.904000000
H    -3.633000000     0.200000000    -1.400000000
O    -2.536000000    -2.263000000     5.372000000
H    -3.039000000    -2.656000000     4.658000000
H    -2.897000000    -2.660000000     6.165000000
O     3.262000000     2.323000000     4.680000000
H     2.745000000     3.123000000     4.589000000
H     2.647000000     1.616000000     4.487000000
O    -0.407000000     2.563000000     4.428000000
H    -1.220000000     3.024000000     4.220000000
H    -0.676000000     1.656000000     4.572000000
O     1.532000000     4.107000000     3.436000000
H     1.382000000     4.293000000     2.509000000
H     0.934000000     3.387000000     3.636000000
O    -2.757000000    -5.473000000    -2.330000000
H    -2.048000000    -5.554000000    -2.968000000
H    -3.182000000    -4.644000000    -2.549000000
O     5.677000000     1.217000000     5.626000000
H     4.941000000     1.585000000     5.137000000
H     5.271000000     0.628000000     6.262000000
O     2.593000000    -2.909000000     3.225000000
H     2.472000000    -3.348000000     2.383000000
H     1.739000000    -2.974000000     3.654000000
O     1.168000000     0.613000000     7.960000000
H     1.036000000    -0.102000000     7.337000000
H     0.351000000     1.111000000     7.928000000
O    -3.423000000     2.422000000     4.594000000
H    -3.869000000     2.498000000     3.751000000
H    -3.874000000     1.704000000     5.039000000
O     1.688000000     2.000000000    -3.332000000
H     1.024000000     1.310000000    -3.317000000
H     2.487000000     1.571000000    -3.026000000
O     1.934000000    -0.197000000     4.284000000
H     1.819000000    -1.018000000     3.806000000
H     1.077000000    -0.024000000     4.673000000
O     2.979000000    -0.067000000    -6.237000000
H     3.082000000     0.884000000    -6.264000000
H     2.051000000    -0.202000000    -6.044000000
O     0.774000000     2.219000000    -5.907000000
H     1.258000000     2.497000000    -5.129000000
H     0.504000000     1.321000000    -5.713000000
O    -0.978000000    -2.802000000    -5.959000000
H    -1.005000000    -3.759000000    -5.979000000
H    -1.269000000    -2.574000000    -5.076000000
O     0.990000000     5.531000000     5.676000000
H     1.197000000     5.319000000     4.766000000
H     1.843000000     5.609000000     6.104000000
O    -0.024000000    -0.110000000    -9.311000000
H     0.761000000    -0.626000000    -9.498000000
H     0.027000000     0.072000000    -8.373000000
O    -5.663000000     1.766000000    -2.516000000
H    -4.913000000     1.477000000    -3.035000000
H    -5.514000000     1.388000000    -1.649000000
O     3.602000000    -5.724000000     4.272000000
H     3.151000000    -6.521000000     3.993000000
H     3.031000000    -5.012000000     3.984000000
O    -3.935000000     1.383000000    -0.263000000
H    -3.659000000     1.132000000     0.618000000
H    -4.095000000     2.325000000    -0.205000000
O    -2.899000000     4.074000000    -3.159000000
H    -1.999000000     4.397000000    -3.144000000
H    -3.295000000     4.502000000    -3.918000000
O    -0.825000000    -4.545000000    -0.149000000
H    -1.325000000    -3.952000000     0.412000000
H    -1.482000000    -4.949000000    -0.716000000
O    -1.403000000     2.173000000    -8.267000000
H    -0.812000000     1.528000000    -8.655000000
H    -1.190000000     2.162000000    -7.334000000
O    -2.848000000     0.675000000     2.284000000
H    -2.103000000     0.143000000     2.003000000
H    -2.569000000     1.055000000     3.117000000
O     4.021000000    -1.991000000    -4.161000000
H     3.670000000    -1.271000000    -4.685000000
H     4.895000000    -1.697000000    -3.904000000
O     0.058000000    -2.855000000     3.987000000
H    -0.316000000    -3.390000000     4.686000000
H    -0.701000000    -2.536000000     3.498000000
O     0.199000000     4.201000000    -2.955000000
H    -0.081000000     4.235000000    -2.040000000
H     0.668000000     3.370000000    -3.031000000
O    -3.145000000    -2.820000000    -3.263000000
H    -3.450000000    -2.015000000    -2.843000000
H    -2.199000000    -2.703000000    -3.346000000
O     2.057000000    -1.638000000     6.637000000
H     1.655000000    -2.443000000     6.310000000
H     2.529000000    -1.283000000     5.884000000
O     5.353000000    -1.557000000     0.776000000
H     4.964000000    -2.213000000     0.198000000
H     4.778000000    -0.796000000     0.694000000
O     1.501000000    -3.693000000    -3.633000000
H     0.810000000    -3.076000000    -3.393000000
H     2.258000000    -3.141000000    -3.830000000
O     1.662000000    -4.743000000     0.897000000
H     0.728000000    -4.669000000     0.704000000
H     1.842000000    -5.682000000     0.857000000
O    -2.869000000     1.459000000    -3.951000000
H    -2.903000000     2.350000000    -3.604000000
H    -1.965000000     1.180000000    -3.806000000
O    -0.901000000    -5.574000000    -4.305000000
H    -0.879000000    -5.620000000    -5.261000000
H    -0.099000000    -5.107000000    -4.070000000
O     5.013000000    -2.512000000     4.791000000
H     5.783000000    -1.949000000     4.872000000
H     4.382000000    -1.987000000     4.299000000
O    -1.019000000     5.610000000    -0.893000000
H    -1.364000000     6.095000000    -0.144000000
H    -1.376000000     6.063000000    -1.657000000
O     3.298000000    -3.011000000    -0.596000000
H     2.723000000    -3.621000000    -0.134000000
H     2.718000000    -2.545000000    -1.198000000
O    -4.245000000     4.475000000    -0.730000000
H    -3.551000000     4.368000000    -1.381000000
H    -4.927000000     4.967000000    -1.187000000
O    -0.969000000     0.032000000     5.496000000
H    -1.468000000    -0.772000000     5.643000000
H    -1.186000000     0.589000000     6.244000000
O     1.454000000     4.727000000     0.732000000
H     2.201000000     5.187000000     0.348000000
H     0.693000000     5.079000000     0.270000000
O     4.141000000     4.022000000     1.774000000
H     3.625000000     4.695000000     1.331000000
H     3.588000000     3.736000000     2.502000000
O    -3.895000000    -2.377000000     0.176000000
H    -4.813000000    -2.444000000     0.439000000
H    -3.870000000    -1.625000000    -0.416000000
O    -5.207000000    -2.439000000    -5.040000000
H    -4.910000000    -1.770000000    -5.657000000
H    -4.423000000    -2.669000000    -4.541000000
