158
-3018.12610
C     1.140000000    -0.771000000    -0.484000000
H     1.965000000    -1.431000000    -0.741000000
C     0.427000000    -1.084000000     0.676000000
H     0.803000000    -1.870000000     1.325000000
C    -0.625000000    -0.229000000     1.044000000
H    -1.167000000    -0.453000000     2.042000000
C    -0.972000000     0.801000000     0.195000000
H    -1.826000000     1.371000000     0.552000000
C    -0.316000000     1.035000000    -1.035000000
H    -0.637000000     1.891000000    -1.623000000
C     0.769000000     0.268000000    -1.337000000
C     1.569000000     0.515000000    -2.621000000
O     2.697000000     0.094000000    -2.629000000
O     1.179000000     1.280000000    -3.529000000
O     0.307000000     3.826000000    -3.222000000
H    -0.534000000     3.938000000    -3.667000000
H     0.515000000     2.898000000    -3.332000000
O     6.017000000    -1.595000000    -5.125000000
H     5.858000000    -0.708000000    -5.448000000
H     5.992000000    -2.143000000    -5.909000000
O    -3.253000000    -0.309000000    -1.863000000
H    -3.246000000     0.594000000    -2.182000000
H    -2.544000000    -0.341000000    -1.221000000
O     2.020000000     6.309000000    -3.098000000
H     1.230000000     5.781000000    -3.211000000
H     2.605000000     5.757000000    -2.579000000
O    -0.794000000     4.279000000     1.595000000
H    -0.355000000     4.357000000     0.748000000
H    -0.293000000     4.850000000     2.178000000
O    -0.183000000    -5.510000000     2.099000000
H     0.294000000    -6.295000000     2.370000000
H    -0.155000000    -5.531000000     1.143000000
O    -1.999000000    -5.350000000    -1.031000000
H    -1.229000000    -4.819000000    -1.232000000
H    -2.266000000    -5.715000000    -1.875000000
O     2.651000000    -2.300000000     6.279000000
H     2.089000000    -2.944000000     6.710000000
H     2.056000000    -1.797000000     5.723000000
O     4.164000000    -5.225000000     1.493000000
H     3.289000000    -4.953000000     1.770000000
H     4.120000000    -6.181000000     1.468000000
O    -0.196000000     0.994000000     7.028000000
H     0.613000000     1.045000000     6.518000000
H     0.021000000     1.410000000     7.862000000
O     1.074000000    -0.817000000    -7.206000000
H     1.344000000    -0.545000000    -8.083000000
H     0.138000000    -0.619000000    -7.170000000
O     1.170000000     1.837000000    -6.053000000
H     1.083000000     1.646000000    -5.119000000
H     0.950000000     1.013000000    -6.488000000
O    -2.564000000     2.736000000     2.960000000
H    -2.043000000     3.381000000     2.481000000
H    -3.100000000     2.314000000     2.288000000
O     4.217000000     4.300000000    -4.865000000
H     4.987000000     3.756000000    -4.701000000
H     3.862000000     4.481000000    -3.994000000
O    -1.750000000    -1.120000000     6.171000000
H    -1.030000000    -1.638000000     6.531000000
H    -1.585000000    -0.231000000     6.486000000
O     4.266000000    -2.221000000    -2.794000000
H     4.983000000    -2.017000000    -3.394000000
H     3.827000000    -1.383000000    -2.651000000
O    -5.002000000     0.665000000     4.022000000
H    -5.420000000    -0.191000000     4.121000000
H    -4.135000000     0.469000000     3.666000000
O     2.663000000    -4.561000000    -2.296000000
H     1.858000000    -4.083000000    -2.097000000
H     3.281000000    -3.885000000    -2.574000000
O     0.102000000    -4.108000000    -4.604000000
H    -0.530000000    -3.912000000    -5.295000000
H     0.682000000    -3.346000000    -4.587000000
O     2.177000000    -1.833000000    -4.946000000
H     2.161000000    -1.095000000    -4.335000000
H     2.018000000    -1.437000000    -5.803000000
O    -4.141000000     2.877000000     0.111000000
H    -3.766000000     3.737000000     0.299000000
H    -3.834000000     2.670000000    -0.771000000
O    -0.061000000    -3.343000000    -1.919000000
H    -0.161000000    -3.634000000    -2.826000000
H    -0.295000000    -2.415000000    -1.937000000
O    -5.949000000     0.635000000     0.435000000
H    -5.631000000     1.536000000     0.494000000
H    -6.853000000     0.680000000     0.747000000
O     1.274000000    -5.211000000     5.220000000
H     0.912000000    -4.612000000     4.567000000
H     1.313000000    -6.057000000     4.774000000
O     2.089000000     1.670000000     1.441000000
H     1.235000000     1.281000000     1.255000000
H     2.720000000     1.012000000     1.150000000
O    -2.245000000     2.990000000     5.704000000
H    -2.309000000     2.597000000     4.833000000
H    -1.713000000     2.374000000     6.207000000
O     1.172000000    -5.812000000    -0.340000000
H     1.706000000    -6.595000000    -0.204000000
H     1.753000000    -5.203000000    -0.796000000
O     1.931000000     4.483000000    -6.223000000
H     1.715000000     3.554000000    -6.147000000
H     2.863000000     4.530000000    -6.008000000
O     3.110000000     3.433000000    -2.629000000
H     2.165000000     3.576000000    -2.687000000
H     3.209000000     2.481000000    -2.633000000
O     0.251000000    -3.086000000     3.608000000
H    -0.478000000    -2.468000000     3.566000000
H     0.118000000    -3.665000000     2.858000000
O     4.141000000     0.442000000    -0.561000000
H     4.897000000     0.987000000    -0.781000000
H     3.594000000     0.463000000    -1.346000000
O    -1.545000000    -0.225000000    -6.967000000
H    -1.618000000     0.074000000    -7.874000000
H    -2.042000000     0.419000000    -6.462000000
O     4.204000000    -2.613000000     0.496000000
H     4.090000000    -3.319000000    -0.141000000
H     4.407000000    -1.843000000    -0.034000000
O    -2.556000000    -5.258000000     3.325000000
H    -1.779000000    -5.451000000     2.800000000
H    -2.471000000    -4.331000000     3.546000000
O    -0.115000000     5.205000000    -0.982000000
H     0.072000000     4.709000000    -1.778000000
H    -1.066000000     5.313000000    -0.984000000
O    -1.109000000    -1.391000000    -3.391000000
H    -2.051000000    -1.335000000    -3.232000000
H    -1.036000000    -1.668000000    -4.304000000
O     6.437000000     1.563000000    -1.455000000
H     6.464000000     2.335000000    -2.021000000
H     7.004000000     0.927000000    -1.892000000
O     2.978000000     2.396000000    -8.386000000
H     3.869000000     2.605000000    -8.107000000
H     2.513000000     2.196000000    -7.574000000
O     3.290000000    -2.565000000     2.972000000
H     3.516000000    -2.669000000     2.048000000
H     2.343000000    -2.700000000     3.004000000
O     3.939000000    -3.748000000    -5.712000000
H     3.283000000    -3.155000000    -5.343000000
H     4.540000000    -3.174000000    -6.187000000
O    -3.904000000    -3.818000000     0.538000000
H    -3.015000000    -4.143000000     0.395000000
H    -4.234000000    -3.627000000    -0.340000000
O    -4.957000000     1.032000000     6.710000000
H    -5.907000000     1.145000000     6.735000000
H    -4.763000000     0.840000000     5.792000000
O     5.153000000     0.623000000     2.209000000
H     5.325000000    -0.241000000     2.582000000
H     4.770000000     0.442000000     1.351000000
O     2.259000000     4.300000000     2.264000000
H     2.279000000     3.418000000     1.892000000
H     3.145000000     4.636000000     2.131000000
O    -4.274000000    -1.285000000     1.764000000
H    -4.212000000    -1.760000000     0.935000000
H    -4.815000000    -0.522000000     1.563000000
O    -3.201000000     2.537000000    -2.536000000
H    -2.607000000     3.081000000    -3.053000000
H    -3.991000000     2.469000000    -3.071000000
O    -2.171000000     3.990000000    -4.495000000
H    -2.424000000     3.235000000    -5.027000000
H    -2.645000000     4.725000000    -4.884000000
O    -2.501000000    -2.510000000     3.628000000
H    -2.441000000    -1.962000000     4.410000000
H    -2.924000000    -1.951000000     2.976000000
