158
-3039.78034
C     0.111000000     1.208000000     0.844000000
H     0.260000000     2.050000000     1.516000000
C    -0.542000000     0.069000000     1.148000000
H    -0.925000000     0.082000000     2.165000000
C    -0.708000000    -1.030000000     0.296000000
H    -1.254000000    -1.789000000     0.717000000
C    -0.196000000    -0.951000000    -1.002000000
H    -0.181000000    -1.764000000    -1.724000000
C     0.592000000     0.213000000    -1.342000000
H     1.093000000     0.311000000    -2.301000000
C     0.761000000     1.308000000    -0.424000000
C     1.586000000     2.514000000    -0.812000000
O     1.996000000     3.253000000     0.066000000
O     1.832000000     2.822000000    -1.951000000
O    -0.731000000     6.821000000    -3.739000000
H    -1.436000000     7.094000000    -3.152000000
H    -0.730000000     5.866000000    -3.685000000
O    -5.510000000    -4.638000000    -0.953000000
H    -5.709000000    -4.813000000    -1.873000000
H    -5.733000000    -5.451000000    -0.501000000
O    -2.052000000     4.807000000    -0.029000000
H    -1.168000000     5.136000000     0.135000000
H    -2.574000000     5.152000000     0.695000000
O    -2.439000000    -4.194000000     0.295000000
H    -1.694000000    -4.796000000     0.294000000
H    -2.740000000    -4.186000000     1.204000000
O     1.242000000    -5.517000000    -1.595000000
H     1.078000000    -5.259000000    -0.688000000
H     2.095000000    -5.133000000    -1.802000000
O     2.176000000    -0.910000000    -4.331000000
H     3.003000000    -0.459000000    -4.165000000
H     1.545000000    -0.206000000    -4.482000000
O    -1.620000000    -6.264000000    -2.738000000
H    -1.433000000    -6.889000000    -2.037000000
H    -0.781000000    -5.836000000    -2.906000000
O    -1.705000000     1.332000000     5.052000000
H    -2.072000000     2.091000000     5.506000000
H    -0.779000000     1.546000000     4.937000000
O     0.484000000     4.721000000     3.018000000
H    -0.285000000     4.162000000     3.130000000
H     0.345000000     5.155000000     2.177000000
O    -2.061000000     3.539000000    -2.368000000
H    -2.122000000     4.165000000    -1.646000000
H    -2.533000000     2.767000000    -2.057000000
O    -5.946000000    -3.344000000     1.531000000
H    -5.571000000    -3.436000000     0.655000000
H    -5.187000000    -3.281000000     2.111000000
O     3.498000000     4.657000000    -5.117000000
H     3.370000000     4.754000000    -4.173000000
H     2.625000000     4.777000000    -5.490000000
O    -4.027000000     1.625000000     1.896000000
H    -4.696000000     1.967000000     1.304000000
H    -4.522000000     1.194000000     2.593000000
O    -1.023000000    -5.233000000     5.151000000
H    -1.048000000    -4.722000000     5.960000000
H    -0.517000000    -6.014000000     5.376000000
O     3.686000000    -3.806000000     1.643000000
H     3.190000000    -3.004000000     1.477000000
H     3.144000000    -4.300000000     2.257000000
O     3.686000000     0.319000000     0.634000000
H     3.843000000     0.536000000     1.554000000
H     3.452000000     1.154000000     0.229000000
O    -2.723000000     0.025000000    -4.510000000
H    -3.463000000    -0.055000000    -3.909000000
H    -2.954000000    -0.538000000    -5.250000000
O     1.885000000    -5.021000000     4.193000000
H     1.151000000    -4.567000000     3.779000000
H     2.468000000    -4.320000000     4.484000000
O     2.006000000    -1.769000000     1.087000000
H     2.631000000    -1.060000000     0.937000000
H     1.158000000    -1.396000000     0.847000000
O    -0.172000000    -3.430000000     3.249000000
H    -0.745000000    -3.806000000     3.918000000
H    -0.326000000    -2.487000000     3.305000000
O    -2.188000000    -1.261000000     3.955000000
H    -2.985000000    -1.510000000     4.423000000
H    -1.991000000    -0.379000000     4.271000000
O     0.125000000     3.253000000    -3.728000000
H     0.776000000     3.078000000    -3.049000000
H    -0.668000000     3.486000000    -3.245000000
O     6.235000000     2.220000000    -2.447000000
H     6.771000000     1.536000000    -2.851000000
H     6.195000000     2.913000000    -3.106000000
O     2.773000000    -3.693000000    -4.600000000
H     2.487000000    -2.887000000    -4.169000000
H     3.633000000    -3.479000000    -4.962000000
O    -1.778000000     3.039000000     2.926000000
H    -1.953000000     2.145000000     3.218000000
H    -2.501000000     3.243000000     2.332000000
O    -2.461000000     1.282000000    -0.808000000
H    -2.731000000     1.764000000    -0.026000000
H    -1.643000000     0.854000000    -0.556000000
O     5.461000000     3.194000000    -0.127000000
H     4.653000000     3.604000000    -0.436000000
H     5.926000000     2.948000000    -0.927000000
O     0.530000000     5.657000000     0.275000000
H     0.799000000     6.037000000    -0.561000000
H     1.121000000     4.915000000     0.401000000
O     5.958000000     5.682000000    -2.449000000
H     5.163000000     5.260000000    -2.123000000
H     5.649000000     6.488000000    -2.863000000
O     0.629000000     1.795000000    -7.226000000
H     0.133000000     1.693000000    -6.413000000
H     1.522000000     1.540000000    -6.995000000
O     0.582000000    -2.211000000    -6.196000000
H     1.121000000    -1.613000000    -5.677000000
H     1.073000000    -3.033000000    -6.200000000
O     3.463000000     4.996000000    -2.140000000
H     2.858000000     5.722000000    -1.983000000
H     2.938000000     4.210000000    -1.988000000
O     3.123000000     6.783000000     2.319000000
H     2.570000000     7.466000000     2.700000000
H     2.573000000     6.377000000     1.649000000
O     1.054000000     2.885000000     5.195000000
H     1.821000000     3.060000000     5.739000000
H     1.158000000     3.465000000     4.440000000
O     3.289000000     1.329000000    -6.630000000
H     3.968000000     0.659000000    -6.711000000
H     3.425000000     1.703000000    -5.760000000
O    -3.127000000    -3.557000000     2.726000000
H    -2.708000000    -2.733000000     2.974000000
H    -3.139000000    -4.072000000     3.533000000
O     0.700000000    -4.429000000     0.857000000
H     0.270000000    -4.514000000     1.708000000
H     1.011000000    -3.524000000     0.835000000
O     3.882000000     1.178000000    -3.615000000
H     4.610000000     1.269000000    -2.999000000
H     3.220000000     1.790000000    -3.295000000
O     3.609000000     3.079000000     2.155000000
H     3.237000000     3.162000000     1.277000000
H     3.956000000     3.949000000     2.352000000
O     0.001000000     0.679000000    -4.683000000
H    -0.897000000     0.349000000    -4.683000000
H    -0.079000000     1.591000000    -4.404000000
O     1.605000000     0.263000000     6.233000000
H     2.421000000     0.495000000     6.677000000
H     1.160000000     1.100000000     6.098000000
O    -4.489000000     0.321000000    -2.272000000
H    -3.686000000     0.710000000    -1.925000000
H    -4.621000000    -0.466000000    -1.744000000
O     2.704000000     0.725000000     3.259000000
H     2.424000000     0.943000000     4.148000000
H     2.960000000     1.564000000     2.876000000
O    -4.046000000    -2.063000000    -0.987000000
H    -4.126000000    -3.017000000    -1.022000000
H    -3.232000000    -1.909000000    -0.508000000
O    -1.667000000    -7.014000000     3.085000000
H    -2.041000000    -7.717000000     3.616000000
H    -1.722000000    -6.238000000     3.642000000
O    -4.006000000    -4.654000000    -3.511000000
H    -3.473000000    -5.438000000    -3.375000000
H    -3.521000000    -3.956000000    -3.072000000
O     1.628000000     7.265000000    -1.940000000
H     2.052000000     8.123000000    -1.950000000
H     0.819000000     7.392000000    -2.436000000
O    -4.945000000    -1.455000000     4.250000000
H    -5.343000000    -1.024000000     3.494000000
H    -4.827000000    -0.754000000     4.891000000
