158
-3015.56154
C    -0.099000000     1.442000000     0.211000000
H    -0.128000000     2.506000000     0.434000000
C    -0.096000000     0.471000000     1.227000000
H    -0.080000000     0.712000000     2.287000000
C    -0.084000000    -0.872000000     0.866000000
H    -0.263000000    -1.620000000     1.580000000
C    -0.057000000    -1.266000000    -0.438000000
H    -0.132000000    -2.317000000    -0.707000000
C     0.182000000    -0.305000000    -1.447000000
H     0.197000000    -0.610000000    -2.490000000
C     0.144000000     1.048000000    -1.117000000
C     0.257000000     2.155000000    -2.183000000
O     0.255000000     3.371000000    -1.992000000
O     0.287000000     1.849000000    -3.365000000
O    -1.944000000    -0.012000000    -6.321000000
H    -2.628000000    -0.649000000    -6.115000000
H    -1.947000000     0.042000000    -7.277000000
O    -2.782000000     1.142000000    -4.134000000
H    -2.337000000     0.872000000    -4.938000000
H    -2.338000000     1.949000000    -3.873000000
O    -0.603000000     4.686000000     2.920000000
H     0.325000000     4.628000000     2.693000000
H    -1.060000000     4.603000000     2.082000000
O     0.557000000    -4.865000000     2.661000000
H     0.968000000    -4.346000000     1.969000000
H     0.895000000    -5.751000000     2.528000000
O    -3.289000000    -4.776000000    -3.379000000
H    -2.433000000    -5.198000000    -3.445000000
H    -3.297000000    -4.385000000    -2.505000000
O     1.389000000     3.912000000    -7.503000000
H     1.891000000     3.287000000    -8.026000000
H     1.074000000     3.401000000    -6.757000000
O    -1.521000000     2.729000000     4.825000000
H    -1.860000000     1.879000000     4.543000000
H    -0.872000000     2.960000000     4.161000000
O     4.026000000     5.798000000    -4.228000000
H     3.505000000     5.332000000    -3.574000000
H     4.712000000     5.177000000    -4.474000000
O     1.293000000    -3.011000000    -6.909000000
H     1.940000000    -2.305000000    -6.915000000
H     0.907000000    -2.974000000    -6.034000000
O    -1.718000000    -5.344000000     1.205000000
H    -2.208000000    -5.935000000     1.777000000
H    -0.996000000    -5.029000000     1.749000000
O    -2.036000000     4.261000000    -2.960000000
H    -1.737000000     5.080000000    -3.354000000
H    -1.241000000     3.861000000    -2.607000000
O    -1.601000000     2.989000000    -7.863000000
H    -1.670000000     2.128000000    -8.277000000
H    -0.891000000     2.893000000    -7.229000000
O     4.192000000    -0.194000000    -0.925000000
H     3.717000000    -0.643000000    -1.624000000
H     3.592000000     0.490000000    -0.628000000
O     3.443000000     1.789000000    -4.080000000
H     2.519000000     1.888000000    -4.309000000
H     3.449000000     1.736000000    -3.124000000
O     2.637000000    -4.435000000    -1.410000000
H     2.863000000    -3.954000000    -0.614000000
H     2.656000000    -3.774000000    -2.102000000
O    -0.687000000    -2.606000000    -5.116000000
H    -1.203000000    -2.308000000    -5.865000000
H    -1.278000000    -3.184000000    -4.633000000
O     2.390000000     0.919000000     4.053000000
H     2.477000000     1.575000000     4.745000000
H     2.654000000     1.376000000     3.255000000
O    -4.540000000     4.335000000     1.167000000
H    -4.601000000     3.593000000     1.770000000
H    -3.627000000     4.616000000     1.227000000
O     1.832000000    -7.022000000    -1.489000000
H     2.518000000    -7.542000000    -1.906000000
H     2.171000000    -6.127000000    -1.499000000
O    -5.068000000     1.665000000    -1.906000000
H    -4.998000000     1.619000000    -2.860000000
H    -4.184000000     1.475000000    -1.592000000
O     2.958000000    -3.092000000     1.013000000
H     2.619000000    -2.449000000     1.637000000
H     3.864000000    -3.236000000     1.286000000
O     3.475000000    -1.214000000    -5.797000000
H     3.321000000    -0.571000000    -5.105000000
H     3.800000000    -0.699000000    -6.535000000
O    -1.730000000     4.648000000     0.510000000
H    -2.216000000     5.258000000    -0.045000000
H    -0.997000000     4.361000000    -0.035000000
O     0.626000000     0.833000000    -7.705000000
H     0.365000000     0.523000000    -6.838000000
H     1.580000000     0.887000000    -7.663000000
O    -4.923000000    -1.302000000     3.979000000
H    -4.768000000    -2.119000000     3.505000000
H    -5.620000000    -0.868000000     3.487000000
O    -3.070000000    -0.262000000     1.245000000
H    -2.176000000    -0.469000000     0.973000000
H    -3.484000000    -1.114000000     1.377000000
O     1.949000000     4.569000000     1.791000000
H     2.544000000     4.168000000     2.424000000
H     2.496000000     4.746000000     1.025000000
O     0.471000000     5.764000000    -4.629000000
H     0.715000000     6.106000000    -3.769000000
H     0.904000000     6.348000000    -5.251000000
O     2.502000000     4.894000000    -2.262000000
H     1.715000000     4.348000000    -2.279000000
H     2.225000000     5.700000000    -1.827000000
O    -3.023000000     6.199000000    -1.262000000
H    -3.134000000     7.096000000    -1.578000000
H    -3.173000000     5.653000000    -2.033000000
O    -0.892000000    -5.960000000    -3.743000000
H    -0.759000000    -5.757000000    -4.669000000
H    -0.008000000    -6.052000000    -3.388000000
O     3.382000000    -0.764000000     6.052000000
H     3.696000000    -1.575000000     5.653000000
H     3.250000000    -0.170000000     5.313000000
O    -3.233000000    -3.417000000     6.398000000
H    -2.447000000    -3.162000000     5.915000000
H    -3.335000000    -2.738000000     7.066000000
O    -1.249000000    -3.066000000     4.117000000
H    -0.562000000    -3.688000000     3.876000000
H    -0.790000000    -2.233000000     4.226000000
O     3.465000000    -3.340000000     5.385000000
H     4.072000000    -4.016000000     5.687000000
H     2.612000000    -3.774000000     5.367000000
O     3.074000000    -1.804000000    -3.171000000
H     3.823000000    -1.773000000    -3.766000000
H     2.314000000    -1.879000000    -3.747000000
O     0.921000000    -0.184000000    -4.945000000
H     0.603000000     0.493000000    -4.348000000
H     0.146000000    -0.707000000    -5.148000000
O     0.595000000     6.837000000    -1.785000000
H     0.573000000     6.910000000    -0.831000000
H     0.061000000     7.570000000    -2.093000000
O    -2.656000000    -3.941000000    -0.947000000
H    -2.158000000    -4.585000000    -0.443000000
H    -2.298000000    -3.096000000    -0.677000000
O    -3.670000000    -2.810000000     1.893000000
H    -4.219000000    -3.513000000     1.544000000
H    -3.053000000    -3.254000000     2.474000000
O    -0.217000000     3.387000000    -5.425000000
H     0.154000000     4.217000000    -5.126000000
H    -0.201000000     2.825000000    -4.650000000
O     0.278000000     7.311000000     0.817000000
H    -0.195000000     8.104000000     0.563000000
H    -0.386000000     6.759000000     1.229000000
O    -2.102000000     7.049000000    -3.941000000
H    -2.059000000     7.936000000    -4.300000000
H    -1.387000000     6.581000000    -4.372000000
O    -2.654000000     0.549000000     3.913000000
H    -2.475000000     0.237000000     3.025000000
H    -3.286000000    -0.078000000     4.264000000
O    -4.969000000     1.902000000     2.351000000
H    -4.552000000     1.133000000     1.964000000
H    -4.462000000     2.075000000     3.145000000
O     0.704000000    -1.152000000     4.968000000
H     1.054000000    -0.432000000     4.443000000
H     1.210000000    -1.126000000     5.779000000
O     3.604000000     2.449000000    -0.553000000
H     3.726000000     2.431000000     0.396000000
H     3.822000000     3.346000000    -0.806000000
O    -4.217000000     3.910000000    -4.914000000
H    -3.346000000     3.838000000    -4.525000000
H    -4.809000000     3.982000000    -4.165000000
