158
-3040.15180
C     0.774000000     0.691000000     1.068000000
H     1.144000000     1.131000000     1.990000000
C     0.046000000    -0.524000000     1.181000000
H     0.081000000    -0.913000000     2.195000000
C    -0.640000000    -1.118000000     0.088000000
H    -1.427000000    -1.884000000     0.309000000
C    -0.471000000    -0.482000000    -1.142000000
H    -0.919000000    -0.947000000    -2.017000000
C     0.312000000     0.652000000    -1.261000000
H     0.495000000     1.108000000    -2.231000000
C     0.791000000     1.360000000    -0.185000000
C     1.412000000     2.763000000    -0.346000000
O     1.726000000     3.321000000     0.688000000
O     1.402000000     3.252000000    -1.412000000
O    -2.261000000     5.785000000    -1.211000000
H    -2.321000000     6.708000000    -0.966000000
H    -3.147000000     5.553000000    -1.489000000
O     0.808000000     7.032000000    -2.170000000
H     0.925000000     6.876000000    -3.108000000
H     1.278000000     6.313000000    -1.748000000
O    -4.172000000    -4.352000000    -1.738000000
H    -4.471000000    -5.253000000    -1.860000000
H    -4.023000000    -4.275000000    -0.795000000
O    -1.542000000     3.968000000     1.122000000
H    -1.272000000     3.114000000     0.785000000
H    -2.241000000     4.249000000     0.532000000
O    -2.068000000     6.867000000     1.853000000
H    -1.530000000     6.077000000     1.911000000
H    -2.352000000     7.030000000     2.752000000
O    -3.250000000    -3.728000000     0.822000000
H    -2.382000000    -4.064000000     0.602000000
H    -3.460000000    -4.137000000     1.662000000
O    -5.214000000     1.690000000    -1.953000000
H    -4.778000000     1.289000000    -2.704000000
H    -6.095000000     1.317000000    -1.959000000
O     2.744000000    -0.678000000    -3.659000000
H     2.929000000     0.257000000    -3.577000000
H     2.575000000    -0.969000000    -2.763000000
O    -1.413000000     0.971000000     3.923000000
H    -1.352000000     1.870000000     4.246000000
H    -0.949000000     0.449000000     4.577000000
O    -3.854000000     2.987000000    -0.105000000
H    -4.126000000     2.515000000    -0.891000000
H    -3.486000000     2.311000000     0.465000000
O    -5.361000000    -2.525000000     3.390000000
H    -5.392000000    -1.938000000     2.635000000
H    -4.800000000    -3.248000000     3.109000000
O     4.077000000     4.710000000    -3.676000000
H     4.113000000     4.905000000    -2.740000000
H     3.246000000     5.087000000    -3.968000000
O    -4.587000000     0.817000000     3.399000000
H    -4.002000000     1.410000000     3.871000000
H    -4.015000000     0.355000000     2.786000000
O     2.132000000    -5.367000000     0.810000000
H     2.211000000    -5.020000000    -0.079000000
H     3.024000000    -5.344000000     1.157000000
O     3.257000000    -1.172000000     1.163000000
H     2.484000000    -0.613000000     1.241000000
H     3.891000000    -0.789000000     1.769000000
O    -2.273000000    -1.075000000    -6.177000000
H    -2.942000000    -1.067000000    -6.862000000
H    -1.513000000    -0.654000000    -6.580000000
O     2.543000000    -2.170000000    -1.273000000
H     3.254000000    -1.816000000    -0.739000000
H     1.766000000    -2.090000000    -0.721000000
O     0.513000000    -5.141000000     4.604000000
H     0.900000000    -5.402000000     3.768000000
H    -0.140000000    -5.816000000     4.787000000
O    -2.340000000    -2.996000000    -4.427000000
H    -2.144000000    -2.221000000    -4.954000000
H    -3.164000000    -3.326000000    -4.783000000
O    -2.056000000    -2.322000000     5.062000000
H    -1.636000000    -1.941000000     4.290000000
H    -2.173000000    -1.584000000     5.660000000
O    -0.867000000     3.829000000    -2.608000000
H    -0.069000000     3.551000000    -2.158000000
H    -1.274000000     4.455000000    -2.009000000
O     3.791000000    -1.058000000     5.224000000
H     3.312000000    -0.232000000     5.155000000
H     4.645000000    -0.873000000     4.834000000
O     4.948000000     1.798000000    -1.169000000
H     5.138000000     0.862000000    -1.101000000
H     4.485000000     1.888000000    -2.002000000
O     3.227000000    -4.705000000    -1.613000000
H     2.940000000    -3.792000000    -1.643000000
H     4.182000000    -4.655000000    -1.587000000
O    -5.022000000    -2.305000000    -3.038000000
H    -4.911000000    -2.707000000    -3.900000000
H    -4.625000000    -2.928000000    -2.430000000
O    -1.457000000     4.137000000     3.814000000
H    -1.563000000     4.170000000     2.863000000
H    -2.182000000     4.661000000     4.154000000
O    -2.252000000     1.201000000     1.047000000
H    -1.595000000     0.529000000     0.863000000
H    -2.213000000     1.319000000     1.996000000
O     3.473000000     5.638000000     4.428000000
H     3.366000000     6.268000000     3.715000000
H     2.759000000     5.013000000     4.304000000
O     4.085000000     2.031000000     1.323000000
H     3.355000000     2.638000000     1.195000000
H     4.585000000     2.084000000     0.508000000
O     1.751000000     6.333000000     1.127000000
H     0.916000000     6.781000000     0.995000000
H     1.579000000     5.427000000     0.871000000
O     1.663000000     0.739000000    -5.760000000
H     0.925000000     1.194000000    -5.354000000
H     1.823000000    -0.013000000    -5.190000000
O    -1.150000000    -5.593000000    -4.466000000
H    -1.021000000    -5.541000000    -3.519000000
H    -1.392000000    -4.703000000    -4.724000000
O     3.006000000     5.459000000    -1.244000000
H     2.635000000     5.680000000    -0.390000000
H     2.995000000     4.502000000    -1.269000000
O     1.050000000    -2.610000000     6.414000000
H     0.836000000    -3.130000000     5.640000000
H     0.889000000    -3.199000000     7.151000000
O     1.104000000     5.289000000    -4.276000000
H     0.643000000     5.777000000    -4.958000000
H     0.441000000     4.703000000    -3.911000000
O    -0.363000000    -0.471000000     5.882000000
H     0.224000000    -1.112000000     6.283000000
H    -0.728000000     0.015000000     6.621000000
O    -3.492000000    -4.292000000     3.347000000
H    -2.990000000    -3.633000000     3.825000000
H    -3.442000000    -5.075000000     3.896000000
O    -0.812000000    -5.465000000     0.245000000
H     0.068000000    -5.408000000     0.616000000
H    -0.810000000    -4.833000000    -0.474000000
O     2.871000000     2.198000000    -3.202000000
H     3.106000000     2.977000000    -3.706000000
H     2.289000000     2.524000000    -2.515000000
O     5.001000000     2.424000000     3.948000000
H     4.722000000     2.371000000     3.034000000
H     4.225000000     2.176000000     4.450000000
O     1.552000000     3.659000000     3.255000000
H     1.678000000     3.440000000     2.332000000
H     0.628000000     3.897000000     3.321000000
O     3.698000000     7.592000000     2.462000000
H     3.044000000     7.384000000     1.794000000
H     3.487000000     8.485000000     2.734000000
O    -1.006000000     1.978000000    -4.539000000
H    -1.685000000     1.416000000    -4.166000000
H    -0.972000000     2.734000000    -3.953000000
O    -3.773000000     0.149000000    -3.755000000
H    -3.242000000    -0.132000000    -4.500000000
H    -3.761000000    -0.598000000    -3.157000000
O     2.591000000     1.796000000     5.222000000
H     2.383000000     2.135000000     6.092000000
H     2.147000000     2.393000000     4.619000000
O    -5.685000000    -1.492000000     0.972000000
H    -6.125000000    -1.366000000     0.131000000
H    -5.190000000    -2.305000000     0.864000000
O    -0.515000000    -7.391000000     2.513000000
H    -1.049000000    -7.530000000     3.295000000
H    -1.149000000    -7.207000000     1.820000000
O    -1.430000000    -3.911000000    -1.969000000
H    -2.359000000    -3.951000000    -2.199000000
H    -1.052000000    -3.303000000    -2.604000000
