158
-3047.22608
C    -0.550000000     0.431000000     1.242000000
H    -0.924000000     1.026000000     2.072000000
C     0.051000000     1.233000000     0.274000000
H     0.100000000     2.314000000     0.376000000
C     0.583000000     0.626000000    -0.840000000
H     1.104000000     1.263000000    -1.554000000
C     0.488000000    -0.735000000    -1.086000000
H     0.832000000    -1.149000000    -2.031000000
C    -0.194000000    -1.498000000    -0.106000000
H    -0.251000000    -2.568000000    -0.287000000
C    -0.653000000    -0.960000000     1.096000000
C    -1.472000000    -1.687000000     2.047000000
O    -1.792000000    -2.893000000     1.785000000
O    -1.963000000    -1.157000000     3.035000000
O     2.092000000    -3.350000000     1.955000000
H     1.699000000    -2.488000000     2.092000000
H     2.784000000    -3.405000000     2.615000000
O    -3.840000000    -3.756000000     0.030000000
H    -3.111000000    -3.420000000     0.552000000
H    -4.240000000    -2.976000000    -0.353000000
O    -5.176000000    -1.647000000     1.981000000
H    -4.583000000    -1.175000000     2.566000000
H    -4.679000000    -1.753000000     1.170000000
O     2.819000000    -0.356000000    -4.350000000
H     2.590000000    -1.272000000    -4.193000000
H     3.681000000    -0.252000000    -3.947000000
O     2.777000000    -3.321000000    -4.890000000
H     3.522000000    -3.660000000    -5.386000000
H     2.845000000    -3.747000000    -4.036000000
O    -0.928000000     3.135000000    -3.365000000
H    -1.133000000     3.072000000    -4.298000000
H    -1.386000000     3.923000000    -3.072000000
O     0.978000000    -2.616000000     4.953000000
H     1.260000000    -2.252000000     5.792000000
H     1.176000000    -1.930000000     4.316000000
O     5.658000000     1.677000000    -4.760000000
H     5.435000000     1.046000000    -4.076000000
H     6.218000000     1.189000000    -5.363000000
O     2.871000000     3.165000000    -4.952000000
H     2.375000000     2.731000000    -5.647000000
H     3.614000000     2.584000000    -4.789000000
O     0.777000000     6.946000000    -2.418000000
H     0.797000000     6.642000000    -1.511000000
H     0.375000000     6.226000000    -2.903000000
O    -1.053000000    -7.461000000     0.246000000
H    -0.488000000    -6.710000000     0.426000000
H    -1.929000000    -7.166000000     0.494000000
O    -2.152000000     5.018000000     1.250000000
H    -2.141000000     4.854000000     2.193000000
H    -2.772000000     4.376000000     0.903000000
O    -1.815000000    -1.873000000    -3.906000000
H    -1.517000000    -2.750000000    -3.665000000
H    -1.031000000    -1.437000000    -4.239000000
O     1.844000000     0.361000000     4.083000000
H     0.971000000     0.751000000     4.052000000
H     2.066000000     0.343000000     5.014000000
O     3.387000000    -2.103000000    -1.331000000
H     3.574000000    -1.712000000    -0.477000000
H     4.136000000    -1.858000000    -1.875000000
O    -0.354000000    -6.897000000     3.297000000
H    -1.258000000    -7.181000000     3.164000000
H    -0.274000000    -6.100000000     2.772000000
O    -3.103000000     2.142000000     5.723000000
H    -2.229000000     1.796000000     5.542000000
H    -3.443000000     1.581000000     6.420000000
O    -5.843000000    -4.282000000     3.727000000
H    -4.979000000    -4.682000000     3.634000000
H    -6.149000000    -4.159000000     2.829000000
O    -3.045000000    -2.173000000     5.366000000
H    -2.507000000    -1.926000000     4.614000000
H    -2.427000000    -2.559000000     5.986000000
O    -2.000000000     0.221000000    -6.028000000
H    -1.379000000     0.292000000    -5.303000000
H    -1.471000000     0.368000000    -6.812000000
O     0.494000000    -4.997000000    -1.486000000
H     0.455000000    -4.144000000    -1.053000000
H    -0.420000000    -5.214000000    -1.671000000
O     0.868000000     3.796000000     2.653000000
H     1.693000000     3.667000000     3.122000000
H     1.116000000     3.797000000     1.728000000
O    -4.192000000    -0.044000000     6.584000000
H    -5.137000000    -0.149000000     6.476000000
H    -3.826000000    -0.891000000     6.327000000
O     5.343000000    -0.851000000    -2.963000000
H     5.879000000    -0.569000000    -2.222000000
H     5.926000000    -1.404000000    -3.484000000
O    -5.904000000     2.154000000     2.186000000
H    -5.209000000     1.633000000     2.589000000
H    -6.342000000     1.548000000     1.589000000
O     3.692000000     0.019000000     0.423000000
H     3.898000000     0.943000000     0.570000000
H     2.776000000     0.019000000     0.145000000
O    -2.947000000     3.038000000    -0.735000000
H    -2.845000000     3.783000000    -1.327000000
H    -3.475000000     2.410000000    -1.228000000
O     0.380000000     6.190000000     0.086000000
H     1.033000000     5.573000000     0.417000000
H    -0.411000000     5.664000000    -0.030000000
O    -2.127000000    -4.879000000    -2.051000000
H    -2.561000000    -4.984000000    -2.897000000
H    -2.787000000    -4.470000000    -1.492000000
O    -0.733000000     5.092000000     4.543000000
H    -0.235000000     4.808000000     3.776000000
H    -0.481000000     4.478000000     5.232000000
O     2.857000000     0.606000000    -7.150000000
H     3.678000000     0.247000000    -7.485000000
H     2.826000000     0.321000000    -6.236000000
O    -2.651000000     0.363000000    -1.902000000
H    -1.972000000     0.831000000    -1.415000000
H    -2.189000000    -0.366000000    -2.316000000
O    -3.953000000     0.724000000     3.467000000
H    -3.857000000     1.086000000     4.348000000
H    -3.277000000     0.049000000     3.410000000
O     0.145000000     0.218000000    -4.061000000
H     1.099000000     0.137000000    -4.044000000
H    -0.040000000     0.996000000    -3.535000000
O    -4.675000000    -1.289000000    -0.918000000
H    -5.534000000    -1.105000000    -1.299000000
H    -4.115000000    -0.583000000    -1.240000000
O    -3.135000000    -4.388000000     3.516000000
H    -2.623000000    -3.785000000     2.978000000
H    -3.221000000    -3.944000000     4.359000000
O    -3.285000000    -6.220000000     1.049000000
H    -3.461000000    -5.990000000     1.961000000
H    -3.630000000    -5.483000000     0.544000000
O     0.741000000    -2.997000000    -6.503000000
H     1.499000000    -3.049000000    -5.921000000
H     0.005000000    -3.288000000    -5.965000000
O    -0.799000000     0.487000000     5.180000000
H    -0.967000000    -0.203000000     4.538000000
H    -0.520000000     0.018000000     5.967000000
O     2.251000000    -5.984000000    -3.151000000
H     1.616000000    -5.501000000    -2.622000000
H     2.747000000    -6.502000000    -2.518000000
O     4.652000000     2.457000000     0.800000000
H     4.979000000     3.355000000     0.752000000
H     4.767000000     2.208000000     1.717000000
O    -0.658000000    -4.864000000     5.613000000
H    -0.235000000    -5.636000000     5.236000000
H    -0.092000000    -4.134000000     5.363000000
O    -3.620000000     3.734000000     3.681000000
H    -3.839000000     3.184000000     2.929000000
H    -3.486000000     3.115000000     4.399000000
O     0.027000000    -4.855000000     1.473000000
H    -0.594000000    -4.130000000     1.539000000
H     0.882000000    -4.452000000     1.624000000
O     2.314000000     4.099000000     0.277000000
H     2.171000000     4.128000000    -0.669000000
H     3.059000000     3.509000000     0.388000000
O     4.217000000    -4.423000000    -0.084000000
H     3.608000000    -3.896000000    -0.601000000
H     4.396000000    -5.188000000    -0.631000000
O     6.357000000     0.492000000    -0.832000000
H     5.728000000     0.126000000    -0.211000000
H     6.340000000     1.434000000    -0.663000000
O     1.528000000     3.687000000    -2.626000000
H     0.659000000     3.570000000    -3.009000000
H     2.132000000     3.539000000    -3.353000000
