158
-3004.31476
C    -0.438000000     0.520000000     1.338000000
H    -0.731000000     0.753000000     2.359000000
C    -1.126000000    -0.529000000     0.653000000
H    -1.940000000    -1.100000000     1.090000000
C    -0.632000000    -0.854000000    -0.622000000
H    -0.977000000    -1.695000000    -1.145000000
C     0.414000000    -0.181000000    -1.201000000
H     0.813000000    -0.405000000    -2.187000000
C     0.974000000     0.860000000    -0.497000000
H     1.848000000     1.428000000    -0.804000000
C     0.669000000     1.156000000     0.804000000
C     1.521000000     2.053000000     1.608000000
O     1.054000000     2.448000000     2.628000000
O     2.499000000     2.584000000     1.161000000
O     1.159000000    -4.004000000    -4.860000000
H     0.506000000    -4.704000000    -4.891000000
H     1.187000000    -3.744000000    -3.939000000
O     0.295000000     3.763000000    -5.509000000
H    -0.326000000     4.018000000    -4.827000000
H     0.262000000     2.806000000    -5.517000000
O    -3.148000000    -5.035000000    -0.322000000
H    -3.533000000    -4.462000000    -0.986000000
H    -3.195000000    -5.911000000    -0.705000000
O    -1.449000000    -1.080000000     4.665000000
H    -2.281000000    -0.763000000     4.311000000
H    -1.180000000    -0.403000000     5.286000000
O    -1.948000000    -1.962000000    -5.462000000
H    -1.909000000    -2.918000000    -5.472000000
H    -2.359000000    -1.748000000    -4.625000000
O    -3.769000000    -2.306000000    -7.407000000
H    -4.248000000    -1.488000000    -7.536000000
H    -3.014000000    -2.060000000    -6.872000000
O     1.639000000    -3.783000000    -2.036000000
H     2.550000000    -3.504000000    -2.125000000
H     1.157000000    -2.975000000    -1.857000000
O    -0.793000000     0.950000000     6.342000000
H     0.154000000     0.901000000     6.475000000
H    -1.098000000     1.558000000     7.015000000
O     0.446000000     0.948000000    -5.208000000
H     0.243000000     0.037000000    -4.999000000
H     1.398000000     0.964000000    -5.309000000
O     4.833000000     0.274000000    -2.477000000
H     5.442000000     0.396000000    -1.748000000
H     4.110000000     0.872000000    -2.287000000
O    -2.085000000    -4.548000000    -5.415000000
H    -2.756000000    -4.973000000    -5.949000000
H    -1.947000000    -5.147000000    -4.681000000
O     1.128000000    -2.069000000    -7.060000000
H     0.803000000    -2.933000000    -7.313000000
H     0.578000000    -1.812000000    -6.321000000
O    -0.698000000    -4.716000000     1.158000000
H    -1.429000000    -4.804000000     0.547000000
H    -1.027000000    -4.133000000     1.842000000
O    -4.128000000     1.899000000    -4.181000000
H    -3.587000000     2.271000000    -3.484000000
H    -4.842000000     2.527000000    -4.291000000
O    -4.443000000    -3.497000000     3.579000000
H    -5.030000000    -4.144000000     3.189000000
H    -3.607000000    -3.631000000     3.133000000
O     1.663000000    -5.803000000     0.103000000
H     1.526000000    -5.459000000    -0.780000000
H     0.972000000    -5.398000000     0.628000000
O    -2.464000000     2.543000000    -1.615000000
H    -3.110000000     3.169000000    -1.290000000
H    -1.722000000     2.631000000    -1.016000000
O    -3.254000000     0.792000000    -6.449000000
H    -2.311000000     0.953000000    -6.451000000
H    -3.571000000     1.232000000    -5.660000000
O    -1.575000000     4.255000000    -3.632000000
H    -1.766000000     3.463000000    -3.130000000
H    -2.263000000     4.870000000    -3.379000000
O    -4.134000000    -3.596000000    -2.416000000
H    -5.017000000    -3.905000000    -2.620000000
H    -4.169000000    -2.652000000    -2.569000000
O    -3.540000000    -1.014000000    -3.201000000
H    -3.857000000    -0.247000000    -3.678000000
H    -3.684000000    -0.799000000    -2.280000000
O    -4.428000000    -2.804000000     0.667000000
H    -3.865000000    -3.577000000     0.707000000
H    -5.271000000    -3.105000000     1.006000000
O     0.262000000     5.914000000     3.778000000
H    -0.385000000     5.217000000     3.880000000
H     0.307000000     6.065000000     2.834000000
O     0.871000000    -1.653000000     3.239000000
H     0.508000000    -1.418000000     4.093000000
H     0.380000000    -2.431000000     2.976000000
O    -1.010000000     4.035000000     0.884000000
H    -1.580000000     4.374000000     1.574000000
H    -0.367000000     3.498000000     1.348000000
O    -1.630000000    -3.532000000     3.569000000
H    -1.667000000    -2.646000000     3.929000000
H    -1.961000000    -4.091000000     4.272000000
O     4.623000000     3.465000000     2.882000000
H     3.724000000     3.198000000     2.692000000
H     4.857000000     4.050000000     2.161000000
O    -0.708000000     3.104000000     4.574000000
H    -0.766000000     2.288000000     5.071000000
H    -0.052000000     2.929000000     3.900000000
O     4.879000000     5.552000000     0.947000000
H     3.938000000     5.721000000     0.916000000
H     5.203000000     5.843000000     0.094000000
O     2.829000000     2.122000000    -5.507000000
H     3.203000000     2.463000000    -6.319000000
H     2.994000000     2.810000000    -4.861000000
O    -2.750000000     4.566000000     5.551000000
H    -2.453000000     4.411000000     6.448000000
H    -2.271000000     3.924000000     5.026000000
O     2.072000000     4.809000000    -0.409000000
H     2.218000000     4.073000000     0.186000000
H     1.224000000     5.166000000    -0.144000000
O    -2.877000000     5.266000000     2.521000000
H    -3.640000000     5.475000000     1.982000000
H    -3.245000000     4.915000000     3.331000000
O    -3.814000000    -0.134000000     3.803000000
H    -4.034000000     0.705000000     4.208000000
H    -4.486000000    -0.737000000     4.120000000
O     2.577000000     6.385000000    -2.234000000
H     2.399000000     7.237000000    -1.835000000
H     2.466000000     5.758000000    -1.519000000
O     1.873000000     5.222000000     6.276000000
H     1.357000000     4.544000000     6.712000000
H     1.508000000     5.269000000     5.392000000
O     4.083000000    -0.523000000    -5.085000000
H     3.728000000     0.282000000    -5.460000000
H     4.527000000    -0.240000000    -4.286000000
O     3.209000000    -2.327000000     1.347000000
H     2.590000000    -2.468000000     2.063000000
H     3.044000000    -1.429000000     1.061000000
O     4.430000000    -2.954000000    -2.338000000
H     4.693000000    -3.557000000    -1.643000000
H     4.703000000    -2.092000000    -2.024000000
O    -5.039000000    -0.352000000    -0.773000000
H    -4.466000000     0.180000000    -0.220000000
H    -5.114000000    -1.185000000    -0.308000000
O     4.052000000     0.333000000     0.819000000
H     3.553000000     1.130000000     0.996000000
H     4.964000000     0.622000000     0.787000000
O     4.615000000     4.666000000     5.322000000
H     3.754000000     4.982000000     5.595000000
H     4.515000000     4.472000000     4.390000000
O     6.730000000     1.452000000     1.814000000
H     7.544000000     1.947000000     1.907000000
H     6.048000000     2.051000000     2.119000000
O     4.086000000     3.052000000    -1.594000000
H     3.604000000     3.706000000    -1.088000000
H     3.962000000     3.316000000    -2.506000000
O    -3.744000000     0.823000000     1.324000000
H    -2.808000000     0.802000000     1.122000000
H    -3.826000000     0.315000000     2.131000000
O     2.694000000     0.424000000     4.176000000
H     2.390000000     1.225000000     3.749000000
H     2.094000000    -0.255000000     3.868000000
O    -0.596000000    -7.382000000     1.917000000
H    -0.754000000    -6.642000000     1.330000000
H    -1.343000000    -7.376000000     2.515000000
O     1.685000000     0.903000000     6.981000000
H     2.105000000     0.694000000     7.815000000
H     2.158000000     0.377000000     6.336000000
