158
-3028.43881
C    -0.774000000    -0.256000000     1.268000000
H    -1.367000000    -0.484000000     2.150000000
C    -0.758000000    -1.108000000     0.187000000
H    -1.128000000    -2.125000000     0.289000000
C     0.028000000    -0.785000000    -0.932000000
H     0.043000000    -1.509000000    -1.737000000
C     0.702000000     0.428000000    -1.001000000
H     1.294000000     0.743000000    -1.857000000
C     0.629000000     1.319000000     0.091000000
H     1.130000000     2.277000000    -0.030000000
C    -0.076000000     0.957000000     1.259000000
C    -0.145000000     1.848000000     2.454000000
O    -0.852000000     1.550000000     3.445000000
O     0.362000000     2.964000000     2.441000000
O     0.896000000     4.521000000    -1.859000000
H     0.344000000     4.249000000    -2.592000000
H     0.341000000     4.413000000    -1.087000000
O    -0.247000000     3.844000000    -4.223000000
H    -0.782000000     4.426000000    -4.762000000
H     0.474000000     3.582000000    -4.796000000
O     0.677000000    -3.847000000    -2.834000000
H     1.415000000    -3.280000000    -2.612000000
H     0.987000000    -4.362000000    -3.580000000
O    -1.477000000    -1.327000000    -6.481000000
H    -1.378000000    -0.946000000    -5.609000000
H    -2.416000000    -1.489000000    -6.567000000
O     0.272000000     4.414000000     6.183000000
H    -0.173000000     3.872000000     5.531000000
H     1.003000000     3.875000000     6.485000000
O     0.982000000    -4.526000000     4.470000000
H     0.206000000    -4.059000000     4.778000000
H     0.885000000    -4.553000000     3.518000000
O    -1.290000000    -2.964000000     3.712000000
H    -0.691000000    -2.793000000     2.985000000
H    -1.675000000    -2.111000000     3.912000000
O     1.786000000     1.129000000    -7.479000000
H     1.980000000     0.725000000    -6.633000000
H     2.392000000     1.868000000    -7.535000000
O     0.118000000     4.902000000     0.744000000
H    -0.709000000     4.743000000     0.290000000
H     0.190000000     4.181000000     1.370000000
O     2.751000000    -2.448000000    -1.856000000
H     2.832000000    -2.361000000    -0.906000000
H     3.322000000    -1.765000000    -2.209000000
O     1.669000000    -5.402000000    -5.073000000
H     2.007000000    -4.669000000    -5.588000000
H     0.770000000    -5.517000000    -5.381000000
O    -2.786000000    -5.568000000     4.108000000
H    -2.441000000    -5.624000000     5.000000000
H    -2.550000000    -4.688000000     3.815000000
O     3.369000000     4.430000000    -0.797000000
H     2.491000000     4.688000000    -1.077000000
H     3.511000000     3.577000000    -1.209000000
O    -2.055000000     1.365000000    -1.651000000
H    -1.474000000     0.817000000    -1.123000000
H    -2.872000000     0.869000000    -1.702000000
O     4.956000000     1.990000000     3.497000000
H     4.282000000     2.488000000     3.035000000
H     5.780000000     2.393000000     3.223000000
O    -1.488000000     0.873000000    -4.141000000
H    -1.817000000     1.641000000    -4.608000000
H    -1.566000000     1.103000000    -3.215000000
O    -4.502000000    -0.697000000     0.603000000
H    -4.303000000    -0.604000000    -0.329000000
H    -5.162000000    -0.025000000     0.775000000
O    -1.070000000    -5.545000000    -1.624000000
H    -0.758000000    -4.691000000    -1.926000000
H    -0.729000000    -6.166000000    -2.267000000
O    -4.342000000    -0.427000000    -2.579000000
H    -4.243000000    -1.167000000    -3.178000000
H    -5.167000000    -0.017000000    -2.839000000
O     0.153000000     7.395000000    -0.613000000
H     0.042000000     6.719000000     0.056000000
H     0.916000000     7.896000000    -0.323000000
O    -5.246000000    -3.534000000     0.607000000
H    -4.790000000    -2.695000000     0.539000000
H    -4.619000000    -4.175000000     0.271000000
O     0.391000000     1.161000000     5.777000000
H     0.148000000     1.504000000     4.917000000
H     1.189000000     0.656000000     5.616000000
O    -0.305000000    -2.030000000     6.149000000
H    -0.851000000    -1.943000000     5.367000000
H     0.435000000    -1.445000000     5.990000000
O    -5.242000000    -0.099000000     3.312000000
H    -4.573000000     0.574000000     3.182000000
H    -4.819000000    -0.913000000     3.036000000
O     2.826000000    -3.449000000    -6.769000000
H     3.307000000    -2.861000000    -6.186000000
H     2.374000000    -2.865000000    -7.378000000
O     2.154000000    -0.810000000     5.649000000
H     2.745000000    -0.094000000     5.883000000
H     2.734000000    -1.510000000     5.348000000
O     0.344000000     0.821000000     8.516000000
H     0.478000000    -0.097000000     8.750000000
H     0.372000000     0.832000000     7.559000000
O     6.084000000    -4.578000000    -1.411000000
H     5.275000000    -4.254000000    -1.016000000
H     5.807000000    -5.316000000    -1.954000000
O     2.298000000    -1.753000000     0.904000000
H     1.547000000    -1.395000000     0.430000000
H     2.488000000    -1.102000000     1.579000000
O     1.069000000    -4.317000000     1.697000000
H     1.606000000    -3.559000000     1.469000000
H     1.043000000    -4.842000000     0.897000000
O     2.855000000     3.251000000     2.510000000
H     1.921000000     3.203000000     2.715000000
H     2.920000000     3.939000000     1.847000000
O    -3.536000000     2.365000000     2.716000000
H    -3.787000000     2.967000000     3.416000000
H    -2.606000000     2.194000000     2.869000000
O     2.652000000    -0.026000000    -5.047000000
H     3.079000000    -0.285000000    -4.231000000
H     1.850000000    -0.548000000    -5.074000000
O     3.006000000     4.697000000    -4.020000000
H     2.458000000     4.216000000    -3.400000000
H     2.480000000     5.460000000    -4.262000000
O     4.361000000     1.931000000    -1.654000000
H     5.027000000     1.791000000    -0.981000000
H     4.780000000     2.514000000    -2.287000000
O     2.518000000     7.021000000     0.683000000
H     2.778000000     6.144000000     0.399000000
H     1.995000000     6.873000000     1.471000000
O     4.694000000     2.708000000    -5.230000000
H     4.035000000     2.025000000    -5.353000000
H     4.207000000     3.450000000    -4.872000000
O     4.942000000    -2.881000000     0.920000000
H     4.262000000    -2.318000000     1.290000000
H     5.737000000    -2.639000000     1.394000000
O    -2.225000000    -0.541000000     4.640000000
H    -1.732000000     0.227000000     4.351000000
H    -2.633000000    -0.268000000     5.462000000
O    -4.437000000     3.998000000     4.723000000
H    -5.062000000     4.717000000     4.820000000
H    -4.021000000     3.926000000     5.582000000
O     3.640000000    -0.466000000     2.748000000
H     3.652000000    -0.928000000     3.586000000
H     3.732000000     0.457000000     2.982000000
O    -3.804000000    -5.994000000    -0.898000000
H    -2.890000000    -5.707000000    -0.909000000
H    -3.806000000    -6.765000000    -0.330000000
O     5.312000000    -2.420000000    -5.469000000
H     5.922000000    -3.158000000    -5.481000000
H     5.413000000    -2.040000000    -4.596000000
O    -1.828000000     6.829000000     2.245000000
H    -1.101000000     7.412000000     2.467000000
H    -1.532000000     5.962000000     2.521000000
O    -2.047000000     4.220000000    -0.976000000
H    -2.383000000     3.324000000    -0.955000000
H    -2.076000000     4.464000000    -1.901000000
O     3.431000000     4.174000000     5.272000000
H     3.435000000     3.631000000     4.485000000
H     2.988000000     3.639000000     5.931000000
O     0.865000000    -2.032000000    -4.969000000
H     0.337000000    -2.093000000    -5.765000000
H     0.433000000    -2.620000000    -4.349000000
O     4.199000000    -0.542000000    -2.812000000
H     3.996000000     0.334000000    -2.484000000
H     5.082000000    -0.721000000    -2.487000000
