158
-3034.55576
C    -0.755000000    -0.241000000     1.235000000
H    -1.423000000    -0.659000000     1.983000000
C    -1.051000000    -0.865000000     0.041000000
H    -1.855000000    -1.596000000     0.067000000
C    -0.264000000    -0.592000000    -1.072000000
H    -0.430000000    -1.121000000    -2.001000000
C     0.788000000     0.353000000    -0.945000000
H     1.418000000     0.620000000    -1.789000000
C     1.121000000     0.865000000     0.260000000
H     1.897000000     1.598000000     0.466000000
C     0.341000000     0.642000000     1.415000000
C     0.799000000     1.260000000     2.772000000
O     0.185000000     0.985000000     3.776000000
O     1.661000000     2.135000000     2.892000000
O    -3.186000000     3.728000000    -0.362000000
H    -3.279000000     2.940000000    -0.897000000
H    -3.969000000     4.243000000    -0.557000000
O    -0.523000000     3.853000000    -3.787000000
H    -1.382000000     4.185000000    -3.527000000
H     0.098000000     4.363000000    -3.266000000
O     2.577000000    -2.006000000    -3.107000000
H     1.738000000    -2.449000000    -2.980000000
H     2.632000000    -1.862000000    -4.051000000
O     0.079000000    -3.569000000    -3.048000000
H    -0.437000000    -3.349000000    -3.823000000
H    -0.369000000    -3.125000000    -2.328000000
O    -1.014000000     4.508000000     6.102000000
H    -0.139000000     4.130000000     6.183000000
H    -0.931000000     5.387000000     6.472000000
O     2.757000000    -2.765000000     4.469000000
H     2.535000000    -1.875000000     4.744000000
H     1.966000000    -3.086000000     4.036000000
O     4.758000000     1.913000000     1.002000000
H     4.398000000     2.117000000     1.865000000
H     5.280000000     2.682000000     0.773000000
O    -0.643000000    -6.591000000    -2.261000000
H    -0.003000000    -6.101000000    -2.778000000
H    -0.746000000    -6.077000000    -1.460000000
O    -2.804000000    -3.136000000    -2.839000000
H    -2.516000000    -3.904000000    -3.332000000
H    -3.674000000    -2.941000000    -3.186000000
O     0.997000000     4.473000000     2.450000000
H     0.583000000     4.240000000     1.619000000
H     1.298000000     3.638000000     2.810000000
O    -4.969000000    -2.522000000    -5.479000000
H    -5.180000000    -3.341000000    -5.032000000
H    -5.729000000    -1.961000000    -5.323000000
O     4.664000000    -2.738000000    -1.317000000
H     3.854000000    -2.450000000    -1.737000000
H     4.386000000    -3.416000000    -0.701000000
O     3.189000000     5.335000000     0.956000000
H     2.424000000     5.304000000     1.531000000
H     3.183000000     4.491000000     0.504000000
O    -3.894000000     1.344000000    -2.020000000
H    -3.533000000     1.028000000    -2.848000000
H    -4.840000000     1.222000000    -2.108000000
O     7.056000000     2.418000000     3.134000000
H     6.110000000     2.281000000     3.089000000
H     7.211000000     2.733000000     4.024000000
O    -1.068000000     5.957000000     3.768000000
H    -0.954000000     5.406000000     4.542000000
H    -0.313000000     5.754000000     3.215000000
O    -0.604000000     1.322000000    -5.664000000
H    -1.521000000     1.382000000    -5.930000000
H    -0.526000000     1.933000000    -4.930000000
O     6.099000000    -0.105000000    -0.473000000
H     5.721000000    -0.972000000    -0.327000000
H     5.838000000     0.403000000     0.296000000
O    -4.830000000    -0.079000000     0.689000000
H    -4.105000000     0.100000000     0.090000000
H    -4.750000000     0.590000000     1.368000000
O    -0.228000000    -4.561000000     0.244000000
H    -1.181000000    -4.550000000     0.156000000
H     0.052000000    -3.704000000    -0.077000000
O    -4.211000000    -2.278000000     2.284000000
H    -4.558000000    -1.473000000     1.901000000
H    -3.776000000    -2.722000000     1.556000000
O     1.251000000     2.973000000     5.578000000
H     1.187000000     2.456000000     4.775000000
H     2.162000000     2.876000000     5.853000000
O     5.598000000    -0.623000000    -3.120000000
H     5.840000000    -0.532000000    -2.198000000
H     4.697000000    -0.303000000    -3.164000000
O     1.562000000    -0.228000000     5.997000000
H     0.899000000    -0.013000000     5.341000000
H     2.155000000     0.524000000     5.993000000
O     0.487000000    -4.702000000    -6.114000000
H     1.350000000    -4.397000000    -5.834000000
H     0.377000000    -4.336000000    -6.992000000
O    -4.829000000    -0.285000000     4.631000000
H    -4.450000000     0.106000000     3.844000000
H    -4.231000000    -0.035000000     5.335000000
O     4.124000000    -3.946000000    -4.355000000
H     3.946000000    -3.287000000    -5.026000000
H     4.715000000    -3.510000000    -3.742000000
O     3.676000000     1.672000000     6.009000000
H     4.384000000     1.132000000     6.359000000
H     4.097000000     2.218000000     5.344000000
O     1.053000000     2.258000000     8.309000000
H     1.646000000     1.507000000     8.306000000
H     0.980000000     2.510000000     7.389000000
O     1.881000000    -2.250000000     0.650000000
H     1.565000000    -1.347000000     0.620000000
H     2.711000000    -2.197000000     1.124000000
O     0.723000000    -4.721000000     3.006000000
H     0.401000000    -4.591000000     2.114000000
H     1.410000000    -5.383000000     2.919000000
O     4.270000000     2.983000000     3.467000000
H     3.341000000     2.860000000     3.270000000
H     4.389000000     3.933000000     3.473000000
O    -2.195000000     1.729000000     3.443000000
H    -2.082000000     2.524000000     3.963000000
H    -1.327000000     1.326000000     3.430000000
O     3.139000000    -1.981000000    -5.985000000
H     3.523000000    -1.120000000    -6.151000000
H     2.200000000    -1.854000000    -6.118000000
O     2.156000000     3.733000000    -1.089000000
H     1.297000000     3.457000000    -0.772000000
H     1.978000000     4.514000000    -1.613000000
O     3.752000000     1.513000000    -1.748000000
H     4.273000000     1.317000000    -0.970000000
H     3.091000000     2.134000000    -1.444000000
O    -3.163000000    -3.490000000     4.447000000
H    -3.487000000    -2.959000000     3.720000000
H    -2.958000000    -2.855000000     5.134000000
O     4.188000000     3.379000000    -3.745000000
H     3.322000000     2.978000000    -3.822000000
H     4.623000000     2.878000000    -3.056000000
O    -2.861000000     1.041000000     6.128000000
H    -2.107000000     1.080000000     5.539000000
H    -3.192000000     1.938000000     6.154000000
O     4.424000000    -1.583000000     1.686000000
H     5.016000000    -2.294000000     1.931000000
H     4.303000000    -1.083000000     2.494000000
O    -3.242000000    -3.601000000     0.100000000
H    -3.387000000    -3.195000000    -0.754000000
H    -3.179000000    -4.538000000    -0.087000000
O    -0.398000000     3.606000000     0.211000000
H    -0.673000000     2.724000000    -0.042000000
H    -1.114000000     4.172000000    -0.078000000
O     0.518000000    -1.167000000    -5.627000000
H    -0.266000000    -1.067000000    -6.166000000
H     0.847000000    -0.274000000    -5.515000000
O     3.985000000     0.501000000    -5.334000000
H     4.906000000     0.402000000    -5.092000000
H     3.954000000     1.322000000    -5.825000000
O    -1.961000000    -5.011000000    -4.695000000
H    -1.441000000    -4.690000000    -5.432000000
H    -1.474000000    -5.768000000    -4.370000000
O    -4.782000000     1.891000000     2.547000000
H    -3.840000000     1.848000000     2.710000000
H    -5.160000000     2.129000000     3.394000000
O     0.572000000    -1.460000000     8.230000000
H     1.138000000    -1.040000000     7.582000000
H    -0.026000000    -1.998000000     7.712000000
O    -4.070000000     1.092000000    -4.784000000
H    -4.945000000     0.806000000    -4.523000000
H    -4.057000000     0.988000000    -5.736000000
