158
-3034.23456
C    -0.691000000    -0.044000000     1.319000000
H    -1.141000000    -0.159000000     2.301000000
C    -0.131000000    -1.151000000     0.642000000
H     0.009000000    -2.144000000     1.061000000
C     0.502000000    -0.942000000    -0.566000000
H     1.209000000    -1.659000000    -0.929000000
C     0.471000000     0.303000000    -1.199000000
H     0.949000000     0.406000000    -2.170000000
C    -0.105000000     1.392000000    -0.486000000
H    -0.193000000     2.312000000    -1.057000000
C    -0.754000000     1.199000000     0.737000000
C    -1.413000000     2.373000000     1.405000000
O    -2.134000000     2.133000000     2.356000000
O    -1.332000000     3.512000000     0.932000000
O     3.479000000     0.004000000    -6.708000000
H     4.252000000     0.452000000    -7.051000000
H     3.810000000    -0.527000000    -5.984000000
O    -1.757000000     1.473000000     4.993000000
H    -2.397000000     0.817000000     5.270000000
H    -1.828000000     1.488000000     4.038000000
O    -4.887000000     2.940000000     2.635000000
H    -4.115000000     2.375000000     2.597000000
H    -5.338000000     2.676000000     3.437000000
O     2.599000000     1.598000000     1.463000000
H     3.395000000     1.349000000     0.994000000
H     1.979000000     0.893000000     1.274000000
O     0.727000000    -3.081000000     3.494000000
H     0.831000000    -3.892000000     2.996000000
H     1.484000000    -2.550000000     3.247000000
O    -0.903000000    -6.783000000    -0.725000000
H    -0.772000000    -5.836000000    -0.690000000
H    -1.063000000    -7.037000000     0.184000000
O    -1.349000000    -3.034000000     5.299000000
H    -1.352000000    -3.981000000     5.439000000
H    -0.578000000    -2.875000000     4.754000000
O     5.252000000    -2.732000000    -2.159000000
H     4.883000000    -2.278000000    -1.402000000
H     4.816000000    -3.585000000    -2.163000000
O     1.651000000    -5.149000000     1.105000000
H     1.700000000    -6.064000000     1.383000000
H     1.786000000    -5.178000000     0.158000000
O    -2.174000000    -0.025000000    -2.609000000
H    -1.609000000    -0.161000000    -1.848000000
H    -2.214000000     0.926000000    -2.710000000
O    -3.283000000     3.804000000    -0.664000000
H    -2.477000000     3.805000000    -0.146000000
H    -3.958000000     4.106000000    -0.057000000
O     4.321000000     2.687000000    -5.181000000
H     3.842000000     3.515000000    -5.168000000
H     3.667000000     2.029000000    -4.943000000
O     6.092000000    -5.142000000     0.153000000
H     5.428000000    -4.799000000     0.752000000
H     6.881000000    -5.218000000     0.689000000
O    -5.384000000     5.157000000     1.486000000
H    -5.696000000     5.616000000     2.266000000
H    -5.015000000     4.340000000     1.820000000
O     2.026000000     1.375000000    -4.410000000
H     1.244000000     1.858000000    -4.140000000
H     1.731000000     0.469000000    -4.492000000
O    -2.827000000     2.395000000    -2.927000000
H    -2.995000000     3.033000000    -2.234000000
H    -3.084000000     2.843000000    -3.733000000
O     3.355000000     2.338000000     4.104000000
H     2.803000000     2.088000000     3.363000000
H     2.803000000     2.920000000     4.627000000
O     0.872000000    -1.223000000    -4.534000000
H     1.206000000    -1.875000000    -3.918000000
H     0.591000000    -1.734000000    -5.293000000
O     0.709000000     2.774000000     4.608000000
H     0.371000000     3.643000000     4.825000000
H    -0.068000000     2.217000000     4.569000000
O    -4.202000000     5.733000000     4.796000000
H    -4.364000000     4.830000000     5.070000000
H    -3.692000000     5.651000000     3.990000000
O     2.481000000     6.726000000     2.710000000
H     3.401000000     6.519000000     2.551000000
H     2.005000000     5.955000000     2.400000000
O    -3.825000000    -1.549000000     1.442000000
H    -3.714000000    -1.299000000     2.360000000
H    -4.623000000    -1.098000000     1.166000000
O    -5.047000000     0.381000000    -1.642000000
H    -4.127000000     0.171000000    -1.804000000
H    -5.201000000     1.181000000    -2.144000000
O     6.656000000    -2.702000000     2.080000000
H     5.702000000    -2.688000000     2.015000000
H     6.855000000    -2.130000000     2.821000000
O    -0.623000000     5.212000000     5.012000000
H    -0.701000000     5.721000000     5.818000000
H    -1.344000000     5.520000000     4.463000000
O    -5.447000000     2.853000000     5.727000000
H    -5.189000000     1.932000000     5.761000000
H    -6.325000000     2.870000000     6.109000000
O     4.221000000     1.556000000    -1.233000000
H     3.574000000     1.790000000    -1.898000000
H     5.066000000     1.720000000    -1.652000000
O     2.009000000    -3.332000000    -3.126000000
H     2.793000000    -3.536000000    -2.616000000
H     2.206000000    -3.653000000    -4.006000000
O     0.040000000    -6.338000000    -3.621000000
H     0.092000000    -6.706000000    -2.739000000
H    -0.467000000    -5.533000000    -3.515000000
O     0.105000000    -4.104000000    -1.455000000
H     0.744000000    -3.942000000    -2.149000000
H     0.002000000    -3.257000000    -1.021000000
O     0.810000000     4.298000000    -3.473000000
H     0.396000000     4.635000000    -2.678000000
H     0.105000000     4.275000000    -4.119000000
O     4.100000000    -5.188000000    -1.804000000
H     3.784000000    -5.963000000    -2.268000000
H     4.620000000    -5.537000000    -1.080000000
O     4.690000000    -0.636000000     2.448000000
H     4.014000000    -0.838000000     3.094000000
H     5.297000000    -0.057000000     2.909000000
O     4.248000000    -1.111000000    -0.180000000
H     4.504000000    -1.028000000     0.739000000
H     4.126000000    -0.210000000    -0.477000000
O     2.256000000    -5.304000000    -5.388000000
H     2.672000000    -5.898000000    -6.013000000
H     1.484000000    -5.781000000    -5.083000000
O     4.042000000    -4.314000000     1.906000000
H     3.158000000    -4.473000000     1.574000000
H     3.976000000    -4.477000000     2.847000000
O     3.181000000     6.102000000    -1.182000000
H     3.696000000     6.263000000    -1.972000000
H     2.870000000     5.202000000    -1.277000000
O     4.806000000    -1.212000000    -4.625000000
H     5.696000000    -0.993000000    -4.900000000
H     4.923000000    -1.826000000    -3.901000000
O     0.166000000     5.353000000    -1.059000000
H    -0.151000000     6.184000000    -0.705000000
H     0.302000000     4.801000000    -0.289000000
O    -2.198000000    -4.932000000    -2.916000000
H    -1.958000000    -4.283000000    -2.254000000
H    -2.981000000    -4.571000000    -3.333000000
O    -4.112000000     7.407000000    -0.609000000
H    -3.214000000     7.382000000    -0.276000000
H    -4.550000000     6.679000000    -0.168000000
O    -3.284000000    -0.878000000    -4.828000000
H    -3.805000000    -1.610000000    -4.498000000
H    -2.733000000    -0.623000000    -4.088000000
O    -2.413000000     5.327000000     2.808000000
H    -1.955000000     5.541000000     1.995000000
H    -2.300000000     4.381000000     2.904000000
O     0.471000000     0.055000000     7.034000000
H     1.056000000     0.811000000     7.090000000
H     0.079000000     0.119000000     6.163000000
O    -3.639000000    -1.914000000     4.439000000
H    -4.137000000    -2.718000000     4.290000000
H    -2.751000000    -2.214000000     4.631000000
O     1.537000000     4.210000000     1.308000000
H     0.648000000     3.872000000     1.415000000
H     2.095000000     3.434000000     1.352000000
O    -2.111000000     5.923000000    -2.901000000
H    -1.833000000     5.467000000    -2.107000000
H    -2.091000000     5.252000000    -3.583000000
O    -3.487000000    -2.727000000    -1.077000000
H    -3.117000000    -1.990000000    -1.562000000
H    -3.395000000    -2.480000000    -0.157000000
