158
-3034.54575
C    -1.183000000    -0.756000000     0.626000000
H    -2.016000000    -1.339000000     1.010000000
C    -0.571000000    -1.017000000    -0.636000000
H    -0.880000000    -1.839000000    -1.276000000
C     0.540000000    -0.271000000    -1.052000000
H     1.066000000    -0.667000000    -1.954000000
C     1.022000000     0.778000000    -0.253000000
H     1.894000000     1.238000000    -0.711000000
C     0.460000000     1.000000000     1.002000000
H     0.844000000     1.825000000     1.597000000
C    -0.670000000     0.314000000     1.400000000
C    -1.516000000     0.794000000     2.537000000
O    -2.342000000     0.070000000     3.063000000
O    -1.566000000     1.990000000     2.851000000
O     4.363000000    -3.212000000    -1.404000000
H     4.335000000    -2.307000000    -1.717000000
H     3.489000000    -3.556000000    -1.590000000
O     1.704000000    -3.377000000     0.643000000
H     0.870000000    -3.279000000     1.103000000
H     1.460000000    -3.477000000    -0.277000000
O     1.782000000    -0.206000000     3.977000000
H     2.306000000    -0.311000000     4.770000000
H     0.881000000    -0.133000000     4.292000000
O     3.154000000    -1.004000000     1.321000000
H     2.635000000    -0.584000000     2.007000000
H     2.629000000    -1.757000000     1.050000000
O     2.033000000    -5.209000000    -1.875000000
H     2.157000000    -5.301000000    -2.820000000
H     2.485000000    -5.964000000    -1.499000000
O    -6.979000000    -2.234000000     2.670000000
H    -6.707000000    -1.530000000     3.259000000
H    -6.809000000    -3.037000000     3.164000000
O    -1.975000000    -3.895000000     4.424000000
H    -2.577000000    -3.156000000     4.333000000
H    -2.542000000    -4.666000000     4.432000000
O    -2.412000000     4.783000000    -1.403000000
H    -2.076000000     3.918000000    -1.639000000
H    -2.917000000     4.633000000    -0.603000000
O    -3.549000000     3.264000000     1.701000000
H    -3.749000000     2.361000000     1.948000000
H    -2.599000000     3.275000000     1.582000000
O    -4.742000000    -4.722000000    -3.554000000
H    -4.281000000    -5.169000000    -4.263000000
H    -4.062000000    -4.535000000    -2.906000000
O    -5.800000000     4.035000000     3.346000000
H    -5.291000000     3.502000000     2.736000000
H    -5.318000000     4.860000000     3.404000000
O    -1.008000000     4.681000000     2.776000000
H    -1.119000000     3.738000000     2.904000000
H    -0.453000000     4.958000000     3.505000000
O    -3.891000000     1.038000000    -0.984000000
H    -3.670000000     0.472000000    -1.723000000
H    -3.110000000     1.575000000    -0.852000000
O    -1.485000000     1.612000000    -4.199000000
H    -1.763000000     2.524000000    -4.288000000
H    -2.302000000     1.114000000    -4.183000000
O     5.639000000    -0.397000000     0.860000000
H     5.902000000    -1.212000000     0.434000000
H     4.740000000    -0.555000000     1.147000000
O     0.109000000    -3.094000000     6.209000000
H    -0.497000000    -3.611000000     5.679000000
H     0.201000000    -2.269000000     5.733000000
O    -4.095000000    -3.150000000    -0.765000000
H    -4.214000000    -2.421000000    -0.156000000
H    -4.930000000    -3.216000000    -1.228000000
O     4.408000000     4.348000000     1.188000000
H     3.714000000     5.000000000     1.287000000
H     4.106000000     3.597000000     1.699000000
O    -1.025000000     6.818000000     1.049000000
H    -1.976000000     6.915000000     1.000000000
H    -0.890000000     5.906000000     1.307000000
O    -2.095000000    -4.635000000     0.347000000
H    -2.846000000    -4.421000000    -0.207000000
H    -1.509000000    -5.130000000    -0.226000000
O    -2.339000000     3.063000000     5.020000000
H    -2.063000000     2.523000000     4.279000000
H    -1.939000000     3.917000000     4.856000000
O     2.586000000     1.149000000    -3.318000000
H     2.627000000     2.061000000    -3.032000000
H     1.852000000     1.123000000    -3.931000000
O    -3.774000000    -1.766000000     4.266000000
H    -4.688000000    -1.501000000     4.372000000
H    -3.365000000    -1.036000000     3.802000000
O    -4.265000000     2.162000000     6.541000000
H    -3.501000000     2.539000000     6.104000000
H    -4.618000000     2.880000000     7.066000000
O    -4.813000000    -2.439000000     6.742000000
H    -4.010000000    -1.937000000     6.600000000
H    -5.507000000    -1.887000000     6.380000000
O    -0.403000000    -3.902000000     2.312000000
H    -0.969000000    -3.839000000     3.081000000
H    -1.008000000    -3.961000000     1.573000000
O     3.235000000     2.935000000     3.307000000
H     3.921000000     2.848000000     3.969000000
H     2.748000000     2.113000000     3.359000000
O    -4.448000000     1.383000000     3.610000000
H    -4.236000000     1.954000000     4.348000000
H    -3.606000000     1.017000000     3.341000000
O     2.567000000    -4.863000000    -4.518000000
H     2.477000000    -5.084000000    -5.445000000
H     2.316000000    -3.941000000    -4.465000000
O     1.341000000     3.665000000    -1.859000000
H     0.860000000     3.241000000    -1.149000000
H     1.008000000     4.563000000    -1.871000000
O     4.159000000     4.286000000    -2.026000000
H     3.788000000     3.732000000    -1.339000000
H     3.398000000     4.614000000    -2.505000000
O    -6.340000000    -0.568000000     4.781000000
H    -7.296000000    -0.525000000     4.781000000
H    -6.064000000     0.248000000     5.198000000
O    -0.576000000    -0.486000000     5.072000000
H    -1.410000000    -0.423000000     4.606000000
H    -0.620000000     0.203000000     5.735000000
O    -0.527000000    -6.090000000    -1.339000000
H     0.313000000    -5.884000000    -1.749000000
H    -0.300000000    -6.649000000    -0.596000000
O     3.974000000    -0.491000000    -1.646000000
H     3.802000000    -0.566000000    -0.707000000
H     3.337000000     0.153000000    -1.955000000
O     1.286000000     4.924000000     4.527000000
H     1.988000000     4.488000000     4.045000000
H     1.494000000     4.766000000     5.448000000
O    -4.607000000    -0.695000000     1.194000000
H    -4.695000000     0.047000000     0.596000000
H    -4.113000000    -0.347000000     1.936000000
O     5.546000000     0.027000000    -4.361000000
H     4.608000000    -0.133000000    -4.258000000
H     5.772000000    -0.400000000    -5.188000000
O     7.148000000    -1.721000000    -2.495000000
H     7.321000000    -1.742000000    -1.554000000
H     6.435000000    -1.089000000    -2.594000000
O    -3.693000000     5.609000000     3.939000000
H    -3.340000000     4.768000000     3.649000000
H    -3.209000000     5.808000000     4.741000000
O    -1.469000000     2.177000000    -1.457000000
H    -0.874000000     1.491000000    -1.152000000
H    -1.350000000     2.191000000    -2.407000000
O     1.618000000    -2.393000000    -5.192000000
H     1.200000000    -2.106000000    -6.004000000
H     1.669000000    -1.602000000    -4.656000000
O    -5.002000000    -4.486000000     1.943000000
H    -4.312000000    -3.823000000     1.938000000
H    -5.573000000    -4.243000000     1.214000000
O     0.840000000     0.726000000    -5.228000000
H     0.926000000     0.597000000    -6.172000000
H    -0.069000000     0.999000000    -5.104000000
O    -0.424000000    -4.838000000    -6.298000000
H    -0.194000000    -4.244000000    -5.584000000
H    -0.265000000    -4.330000000    -7.094000000
O    -6.487000000     1.656000000     1.740000000
H    -7.396000000     1.421000000     1.923000000
H    -6.104000000     1.821000000     2.602000000
O     0.412000000     1.454000000     6.995000000
H     0.719000000     0.604000000     7.312000000
H     0.191000000     1.940000000     7.789000000
O    -3.133000000    -0.495000000    -3.348000000
H    -2.741000000    -1.068000000    -2.689000000
H    -3.766000000    -1.051000000    -3.802000000
