158
-3039.34536
C    -0.420000000     0.787000000     1.136000000
H    -0.566000000     1.334000000     2.064000000
C     0.399000000     1.242000000     0.151000000
H     0.730000000     2.277000000     0.142000000
C     0.677000000     0.405000000    -0.950000000
H     1.251000000     0.822000000    -1.889000000
C     0.269000000    -0.902000000    -0.950000000
H     0.566000000    -1.594000000    -1.735000000
C    -0.555000000    -1.395000000     0.065000000
H    -0.982000000    -2.395000000     0.043000000
C    -0.886000000    -0.542000000     1.146000000
C    -1.709000000    -1.106000000     2.291000000
O    -2.030000000    -2.290000000     2.326000000
O    -1.830000000    -0.536000000     3.424000000
O    -3.553000000    -3.681000000     0.696000000
H    -2.956000000    -3.234000000     1.297000000
H    -4.190000000    -3.011000000     0.449000000
O    -5.451000000    -0.284000000     1.912000000
H    -5.189000000    -0.512000000     1.019000000
H    -5.331000000    -1.093000000     2.410000000
O     1.785000000     0.914000000    -4.549000000
H     1.466000000     0.012000000    -4.587000000
H     2.448000000     0.904000000    -3.858000000
O     3.720000000    -1.601000000    -4.750000000
H     3.449000000    -2.265000000    -5.384000000
H     4.343000000    -2.054000000    -4.181000000
O    -1.043000000     4.180000000    -2.910000000
H    -1.855000000     3.928000000    -3.349000000
H    -1.178000000     5.095000000    -2.663000000
O     0.791000000    -2.132000000     6.207000000
H     1.001000000    -1.567000000     6.951000000
H     1.640000000    -2.341000000     5.818000000
O     1.660000000     3.601000000    -7.399000000
H     1.220000000     4.405000000    -7.673000000
H     1.405000000     3.489000000    -6.483000000
O     1.822000000     6.432000000    -3.094000000
H     2.630000000     6.058000000    -3.446000000
H     1.501000000     7.007000000    -3.789000000
O    -2.246000000    -3.427000000    -2.684000000
H    -2.091000000    -4.365000000    -2.799000000
H    -2.980000000    -3.378000000    -2.072000000
O    -2.372000000     4.450000000     1.004000000
H    -2.177000000     3.835000000     1.711000000
H    -2.693000000     3.899000000     0.289000000
O    -1.865000000    -0.750000000    -3.634000000
H    -2.223000000    -1.605000000    -3.394000000
H    -1.193000000    -0.947000000    -4.286000000
O     2.186000000     0.240000000     4.067000000
H     1.379000000     0.542000000     4.486000000
H     2.260000000    -0.678000000     4.325000000
O     4.932000000    -1.017000000     0.347000000
H     4.235000000    -0.371000000     0.240000000
H     5.506000000    -0.877000000    -0.406000000
O    -1.819000000     2.115000000     6.942000000
H    -1.310000000     1.978000000     7.741000000
H    -2.654000000     1.680000000     7.113000000
O    -0.204000000     4.443000000     4.763000000
H     0.222000000     4.559000000     3.914000000
H    -0.829000000     3.732000000     4.622000000
O    -4.708000000    -2.299000000     4.016000000
H    -3.881000000    -2.110000000     3.572000000
H    -4.455000000    -2.798000000     4.793000000
O     0.447000000    -0.108000000    -7.253000000
H     1.269000000    -0.336000000    -6.818000000
H     0.379000000    -0.730000000    -7.977000000
O    -1.484000000    -2.808000000     5.132000000
H    -1.571000000    -2.117000000     4.476000000
H    -0.703000000    -2.568000000     5.631000000
O     2.195000000    -3.808000000    -0.176000000
H     2.225000000    -2.851000000    -0.185000000
H     1.625000000    -4.022000000     0.563000000
O     0.303000000     5.680000000     0.253000000
H    -0.307000000     5.022000000     0.588000000
H     1.004000000     5.171000000    -0.154000000
O    -4.114000000     0.385000000     7.251000000
H    -4.905000000    -0.131000000     7.407000000
H    -3.788000000     0.074000000     6.406000000
O     4.043000000     1.138000000    -2.801000000
H     4.393000000     1.795000000    -2.200000000
H     4.650000000     0.401000000    -2.730000000
O     3.019000000     0.626000000     1.513000000
H     2.308000000     1.014000000     1.004000000
H     2.590000000     0.267000000     2.289000000
O    -0.790000000    -6.117000000    -2.430000000
H    -1.460000000    -5.954000000    -1.766000000
H    -0.026000000    -6.407000000    -1.932000000
O    -3.496000000     3.071000000    -1.256000000
H    -3.686000000     3.410000000    -2.131000000
H    -3.204000000     2.172000000    -1.406000000
O    -2.432000000    -5.990000000    -0.343000000
H    -2.921000000    -6.215000000    -1.135000000
H    -2.918000000    -5.259000000     0.038000000
O     1.095000000     3.576000000     2.554000000
H     1.380000000     3.029000000     3.287000000
H     1.853000000     3.607000000     1.970000000
O     4.156000000     0.879000000    -6.254000000
H     4.378000000     0.030000000    -5.874000000
H     3.293000000     1.085000000    -5.894000000
O    -2.378000000     0.622000000    -1.394000000
H    -1.554000000     0.977000000    -1.062000000
H    -2.118000000    -0.127000000    -1.930000000
O    -4.021000000     0.671000000     4.227000000
H    -4.533000000     0.558000000     3.426000000
H    -3.189000000     0.234000000     4.043000000
O     1.346000000     3.907000000    -4.348000000
H     1.332000000     2.951000000    -4.322000000
H     0.658000000     4.174000000    -3.739000000
O     3.853000000     4.461000000     1.680000000
H     4.538000000     5.119000000     1.800000000
H     3.471000000     4.666000000     0.827000000
O    -4.098000000    -1.380000000    -0.607000000
H    -4.540000000    -1.049000000    -1.389000000
H    -3.532000000    -0.660000000    -0.329000000
O    -2.489000000    -4.902000000     3.390000000
H    -1.933000000    -4.216000000     3.019000000
H    -2.624000000    -4.636000000     4.299000000
O     4.580000000     2.240000000     3.389000000
H     4.175000000     3.070000000     3.135000000
H     3.882000000     1.593000000     3.289000000
O     0.241000000    -2.110000000    -4.933000000
H     0.713000000    -2.373000000    -4.142000000
H    -0.298000000    -2.870000000    -5.153000000
O    -0.190000000     1.376000000     4.898000000
H    -0.911000000     1.116000000     4.325000000
H    -0.616000000     1.657000000     5.708000000
O     4.171000000    -5.456000000    -1.266000000
H     3.522000000    -4.799000000    -1.014000000
H     4.315000000    -5.967000000    -0.469000000
O     0.476000000    -4.978000000    -4.379000000
H     0.183000000    -5.573000000    -5.069000000
H     0.026000000    -5.285000000    -3.591000000
O    -6.969000000    -0.545000000     4.900000000
H    -6.178000000    -0.887000000     4.485000000
H    -6.702000000    -0.347000000     5.798000000
O    -2.492000000     3.281000000     3.516000000
H    -3.035000000     4.055000000     3.667000000
H    -2.862000000     2.612000000     4.092000000
O     0.158000000    -4.250000000     1.720000000
H    -0.381000000    -3.467000000     1.829000000
H     0.848000000    -4.160000000     2.377000000
O    -6.053000000    -4.126000000     1.821000000
H    -6.176000000    -4.304000000     2.753000000
H    -5.106000000    -4.165000000     1.692000000
O     6.207000000    -0.717000000    -2.228000000
H     5.818000000    -1.583000000    -2.350000000
H     6.998000000    -0.732000000    -2.767000000
O     2.251000000     4.439000000    -1.061000000
H     2.304000000     5.112000000    -1.739000000
H     2.712000000     3.687000000    -1.433000000
O    -4.237000000    -4.051000000     6.024000000
H    -4.659000000    -4.180000000     6.873000000
H    -3.310000000    -3.936000000     6.231000000
O     4.889000000     2.874000000    -0.922000000
H     5.547000000     3.565000000    -0.997000000
H     5.095000000     2.434000000    -0.098000000
O     3.840000000     4.983000000    -4.084000000
H     2.952000000     4.625000000    -4.070000000
H     4.313000000     4.426000000    -4.702000000
