158
-3012.95716
C    -0.644000000    -0.520000000     1.280000000
H    -1.011000000    -1.046000000     2.157000000
C    -0.169000000    -1.310000000     0.155000000
H    -0.179000000    -2.396000000     0.121000000
C     0.372000000    -0.648000000    -1.017000000
H     0.793000000    -1.179000000    -1.889000000
C     0.348000000     0.719000000    -1.070000000
H     0.712000000     1.189000000    -1.980000000
C    -0.084000000     1.480000000     0.020000000
H    -0.056000000     2.563000000    -0.067000000
C    -0.511000000     0.860000000     1.242000000
C    -1.022000000     1.734000000     2.393000000
O    -1.592000000     1.174000000     3.352000000
O    -0.563000000     2.836000000     2.515000000
O     3.567000000    -3.596000000     3.370000000
H     2.824000000    -3.800000000     2.803000000
H     3.677000000    -2.649000000     3.289000000
O     4.639000000     1.860000000     3.370000000
H     5.134000000     2.679000000     3.382000000
H     3.748000000     2.121000000     3.136000000
O     0.714000000    -1.502000000     5.021000000
H     0.937000000    -1.868000000     4.164000000
H     1.318000000    -0.768000000     5.132000000
O    -5.273000000    -0.724000000     1.054000000
H    -4.706000000    -0.908000000     1.803000000
H    -5.395000000     0.225000000     1.073000000
O    -5.196000000     2.021000000     0.362000000
H    -4.341000000     2.166000000    -0.044000000
H    -5.758000000     1.733000000    -0.357000000
O    -3.010000000     3.717000000     4.051000000
H    -2.510000000     3.119000000     3.496000000
H    -3.617000000     3.151000000     4.527000000
O     2.598000000    -0.220000000     0.851000000
H     2.458000000     0.726000000     0.846000000
H     1.792000000    -0.584000000     0.485000000
O     1.654000000    -4.523000000     1.696000000
H     1.468000000    -4.519000000     0.758000000
H     1.635000000    -5.448000000     1.941000000
O    -0.930000000    -4.009000000     2.555000000
H    -1.241000000    -3.593000000     1.751000000
H    -0.054000000    -4.327000000     2.336000000
O     0.860000000    -4.845000000    -0.916000000
H     1.487000000    -5.565000000    -0.989000000
H     0.615000000    -4.649000000    -1.820000000
O    -2.153000000    -2.327000000    -2.701000000
H    -1.726000000    -2.373000000    -1.846000000
H    -2.982000000    -1.880000000    -2.532000000
O    -2.551000000     2.175000000    -1.431000000
H    -2.099000000     3.018000000    -1.386000000
H    -1.849000000     1.525000000    -1.385000000
O     2.332000000     6.124000000    -3.355000000
H     2.388000000     5.190000000    -3.558000000
H     3.243000000     6.411000000    -3.294000000
O    -5.242000000     4.898000000     2.795000000
H    -5.182000000     5.581000000     3.463000000
H    -4.469000000     4.353000000     2.939000000
O     3.516000000    -0.281000000    -3.500000000
H     3.491000000    -1.155000000    -3.890000000
H     4.227000000     0.165000000    -3.959000000
O    -4.567000000     1.247000000    -3.033000000
H    -3.700000000     1.594000000    -2.825000000
H    -4.392000000     0.418000000    -3.480000000
O    -0.696000000     7.565000000     0.564000000
H    -0.339000000     7.112000000    -0.200000000
H    -0.598000000     6.938000000     1.281000000
O     3.350000000    -1.100000000     3.231000000
H     3.005000000    -0.688000000     2.439000000
H     3.189000000    -0.460000000     3.924000000
O     0.541000000    -2.337000000    -5.250000000
H     0.182000000    -2.788000000    -6.014000000
H     1.485000000    -2.490000000    -5.303000000
O     2.288000000     0.985000000     4.937000000
H     2.905000000     1.292000000     5.601000000
H     1.564000000     1.609000000     4.975000000
O     1.819000000     5.550000000     4.104000000
H     1.868000000     6.349000000     4.628000000
H     0.915000000     5.251000000     4.207000000
O    -1.768000000    -0.512000000     5.527000000
H    -1.824000000     0.332000000     5.079000000
H    -0.908000000    -0.855000000     5.284000000
O     1.678000000     1.899000000    -5.401000000
H     1.729000000     1.267000000    -4.684000000
H     1.031000000     1.529000000    -6.001000000
O    -0.581000000     5.123000000     5.531000000
H     0.140000000     5.331000000     6.125000000
H    -1.357000000     5.112000000     6.091000000
O    -2.409000000    -5.682000000    -3.385000000
H    -1.609000000    -5.212000000    -3.149000000
H    -2.578000000    -5.426000000    -4.292000000
O    -4.709000000    -1.708000000     6.046000000
H    -3.763000000    -1.699000000     5.902000000
H    -4.984000000    -2.583000000     5.771000000
O    -0.368000000     2.388000000     5.373000000
H    -0.499000000     3.336000000     5.351000000
H    -0.611000000     2.092000000     4.496000000
O    -5.131000000     1.947000000     5.577000000
H    -5.741000000     2.359000000     6.188000000
H    -4.480000000     1.524000000     6.136000000
O    -2.828000000    -3.486000000    -5.053000000
H    -3.775000000    -3.396000000    -5.160000000
H    -2.647000000    -3.098000000    -4.197000000
O     4.859000000     1.204000000    -1.249000000
H     4.601000000     0.756000000    -2.055000000
H     4.173000000     1.855000000    -1.105000000
O    -1.683000000     5.028000000    -0.571000000
H    -0.764000000     5.237000000    -0.737000000
H    -1.744000000     4.958000000     0.382000000
O     3.288000000    -2.813000000    -4.797000000
H     4.208000000    -2.702000000    -5.036000000
H     3.170000000    -3.761000000    -4.733000000
O     0.053000000    -4.266000000    -3.518000000
H     0.521000000    -4.872000000    -4.093000000
H     0.267000000    -3.398000000    -3.860000000
O     3.017000000     3.589000000    -3.747000000
H     2.988000000     3.086000000    -2.934000000
H     2.473000000     3.091000000    -4.357000000
O     4.891000000    -1.610000000     0.143000000
H     4.529000000    -2.392000000    -0.273000000
H     4.135000000    -1.037000000     0.272000000
O    -1.842000000    -3.857000000     5.127000000
H    -1.748000000    -3.911000000     4.176000000
H    -1.008000000    -3.500000000     5.431000000
O     6.890000000    -2.578000000    -1.790000000
H     6.218000000    -2.588000000    -1.108000000
H     7.456000000    -1.842000000    -1.558000000
O     3.669000000    -3.485000000    -1.405000000
H     3.543000000    -4.429000000    -1.500000000
H     3.687000000    -3.154000000    -2.303000000
O     3.079000000     3.015000000    -0.375000000
H     3.593000000     3.793000000    -0.589000000
H     2.621000000     3.245000000     0.434000000
O     0.785000000     6.037000000    -1.067000000
H     1.594000000     5.858000000    -0.588000000
H     1.076000000     6.299000000    -1.941000000
O    -1.171000000     2.496000000    -4.439000000
H    -1.037000000     2.708000000    -5.362000000
H    -1.248000000     1.542000000    -4.421000000
O    -4.232000000     5.395000000    -1.741000000
H    -4.554000000     5.708000000    -0.895000000
H    -3.346000000     5.081000000    -1.559000000
O    -1.197000000    -0.222000000    -4.382000000
H    -0.359000000    -0.632000000    -4.596000000
H    -1.633000000    -0.853000000    -3.810000000
O    -0.929000000     5.405000000     2.352000000
H    -1.468000000     5.612000000     3.116000000
H    -0.942000000     4.449000000     2.302000000
O     0.896000000     1.601000000     7.861000000
H     0.496000000     1.754000000     7.005000000
H     0.822000000     0.656000000     7.995000000
O    -3.529000000    -0.464000000     3.247000000
H    -3.288000000    -0.985000000     4.014000000
H    -2.852000000     0.212000000     3.195000000
O     2.115000000     3.529000000     2.271000000
H     1.182000000     3.341000000     2.372000000
H     2.259000000     4.317000000     2.795000000
O    -2.323000000    -4.942000000    -0.232000000
H    -3.187000000    -4.793000000    -0.617000000
H    -1.934000000    -5.627000000    -0.774000000
