158
-3017.25311
C    -0.384000000    -0.579000000     1.353000000
H    -0.475000000    -1.104000000     2.300000000
C    -0.193000000    -1.316000000     0.187000000
H    -0.207000000    -2.398000000     0.291000000
C     0.170000000    -0.734000000    -1.009000000
H     0.445000000    -1.372000000    -1.813000000
C     0.273000000     0.675000000    -1.078000000
H     0.472000000     1.239000000    -1.985000000
C    -0.078000000     1.371000000     0.063000000
H    -0.204000000     2.444000000    -0.063000000
C    -0.297000000     0.836000000     1.312000000
C    -0.478000000     1.753000000     2.517000000
O    -0.857000000     1.310000000     3.520000000
O    -0.053000000     2.851000000     2.424000000
O    -5.206000000     3.356000000    -1.771000000
H    -5.362000000     2.763000000    -1.036000000
H    -4.253000000     3.442000000    -1.811000000
O     3.606000000    -3.557000000    -0.249000000
H     4.564000000    -3.559000000    -0.249000000
H     3.369000000    -2.671000000    -0.524000000
O    -1.470000000    -5.406000000    -3.689000000
H    -1.581000000    -6.346000000    -3.830000000
H    -1.268000000    -5.056000000    -4.557000000
O     3.133000000    -1.927000000     3.871000000
H     2.715000000    -2.740000000     4.156000000
H     3.587000000    -1.605000000     4.650000000
O     3.000000000    -1.039000000    -0.779000000
H     3.454000000    -0.206000000    -0.654000000
H     2.142000000    -0.907000000    -0.377000000
O     1.666000000    -5.250000000     1.010000000
H     2.210000000    -4.509000000     0.743000000
H     1.245000000    -4.959000000     1.819000000
O    -2.962000000    -2.757000000     2.171000000
H    -3.538000000    -2.187000000     1.662000000
H    -2.097000000    -2.636000000     1.779000000
O     6.222000000    -1.341000000    -1.878000000
H     5.476000000    -0.746000000    -1.953000000
H     5.977000000    -2.101000000    -2.406000000
O     1.010000000    -7.544000000     0.052000000
H     1.211000000    -6.656000000     0.345000000
H     0.722000000    -7.998000000     0.844000000
O    -0.496000000    -4.175000000    -1.541000000
H    -1.152000000    -4.277000000    -0.852000000
H    -0.867000000    -4.635000000    -2.295000000
O     1.727000000    -6.460000000    -4.326000000
H     2.342000000    -5.889000000    -3.866000000
H     0.865000000    -6.179000000    -4.019000000
O    -0.208000000     5.064000000     0.644000000
H     0.723000000     5.267000000     0.740000000
H    -0.417000000     4.532000000     1.412000000
O    -1.800000000     7.515000000     2.213000000
H    -2.687000000     7.414000000     2.559000000
H    -1.342000000     6.722000000     2.493000000
O     3.181000000     6.420000000     3.638000000
H     3.215000000     6.373000000     4.594000000
H     2.865000000     5.559000000     3.367000000
O    -4.282000000     5.305000000     4.036000000
H    -4.437000000     6.083000000     3.501000000
H    -3.943000000     4.654000000     3.421000000
O     2.183000000     4.018000000     3.409000000
H     1.269000000     3.785000000     3.247000000
H     2.616000000     3.182000000     3.584000000
O    -2.244000000     3.839000000    -2.754000000
H    -2.278000000     3.779000000    -1.799000000
H    -2.309000000     4.776000000    -2.937000000
O    -3.232000000     1.880000000     6.653000000
H    -3.080000000     1.085000000     6.143000000
H    -3.964000000     1.659000000     7.229000000
O    -4.851000000     0.399000000    -1.401000000
H    -4.159000000     0.298000000    -2.055000000
H    -5.531000000    -0.217000000    -1.675000000
O    -3.083000000     1.411000000    -5.039000000
H    -2.760000000     1.040000000    -4.218000000
H    -3.898000000     0.939000000    -5.211000000
O    -0.530000000    -3.814000000    -6.375000000
H     0.033000000    -3.903000000    -7.144000000
H    -1.387000000    -3.581000000    -6.731000000
O     1.841000000     6.187000000    -1.246000000
H     1.395000000     5.341000000    -1.190000000
H     2.724000000     6.013000000    -0.921000000
O    -3.291000000    -4.327000000    -0.699000000
H    -3.963000000    -3.656000000    -0.578000000
H    -3.006000000    -4.544000000     0.188000000
O     1.043000000     1.291000000     5.208000000
H     0.313000000     1.253000000     4.590000000
H     1.816000000     1.415000000     4.657000000
O     2.223000000     2.434000000    -4.781000000
H     1.870000000     1.589000000    -5.059000000
H     1.452000000     2.991000000    -4.670000000
O    -2.622000000     3.817000000     0.016000000
H    -1.775000000     4.199000000     0.245000000
H    -2.957000000     3.465000000     0.840000000
O    -2.689000000    -0.262000000     5.111000000
H    -2.386000000    -1.170000000     5.140000000
H    -2.040000000     0.190000000     4.572000000
O    -0.939000000     3.590000000     6.091000000
H    -0.232000000     2.957000000     5.968000000
H    -1.730000000     3.056000000     6.166000000
O     2.611000000     1.270000000     2.890000000
H     3.526000000     1.301000000     2.614000000
H     2.371000000     0.346000000     2.823000000
O     4.213000000    -0.175000000    -4.072000000
H     3.730000000     0.583000000    -4.400000000
H     3.573000000    -0.886000000    -4.073000000
O    -1.901000000    -5.302000000     1.656000000
H    -2.403000000    -5.064000000     2.436000000
H    -2.227000000    -6.169000000     1.417000000
O    -0.753000000     5.154000000     3.772000000
H    -0.828000000     5.008000000     4.715000000
H    -1.047000000     4.333000000     3.378000000
O     2.674000000    -2.316000000    -3.606000000
H     2.465000000    -3.239000000    -3.464000000
H     2.626000000    -1.922000000    -2.735000000
O     3.944000000     3.510000000    -2.805000000
H     3.418000000     3.282000000    -3.571000000
H     4.800000000     3.747000000    -3.162000000
O     4.452000000    -3.336000000    -5.819000000
H     3.786000000    -3.173000000    -5.151000000
H     4.284000000    -2.676000000    -6.491000000
O    -2.137000000    -3.125000000     6.040000000
H    -2.644000000    -2.960000000     6.835000000
H    -2.676000000    -3.733000000     5.534000000
O     2.117000000    -4.728000000    -2.088000000
H     1.224000000    -4.635000000    -1.756000000
H     2.671000000    -4.395000000    -1.382000000
O     4.045000000     1.691000000    -0.933000000
H     4.188000000     2.378000000    -1.584000000
H     3.296000000     1.996000000    -0.422000000
O    -4.257000000    -0.304000000     1.394000000
H    -4.721000000     0.182000000     2.075000000
H    -3.949000000     0.370000000     0.787000000
O     0.643000000     7.528000000     3.774000000
H     0.008000000     6.869000000     4.054000000
H     1.451000000     7.036000000     3.627000000
O    -0.244000000     4.008000000    -4.837000000
H    -0.261000000     4.933000000    -5.081000000
H    -0.849000000     3.944000000    -4.098000000
O     1.432000000    -0.045000000    -5.248000000
H     1.576000000    -0.816000000    -5.796000000
H     1.055000000    -0.393000000    -4.440000000
O    -4.127000000    -4.354000000     4.396000000
H    -3.757000000    -3.745000000     3.758000000
H    -4.814000000    -4.816000000     3.915000000
O    -1.176000000    -2.118000000    -3.756000000
H    -1.044000000    -2.846000000    -3.150000000
H    -0.757000000    -2.403000000    -4.568000000
O    -3.281000000     3.109000000     2.812000000
H    -4.097000000     2.611000000     2.764000000
H    -2.654000000     2.504000000     3.208000000
O     0.539000000     0.793000000     7.930000000
H     1.316000000     0.302000000     8.198000000
H     0.528000000     0.722000000     6.976000000
O    -2.285000000     0.053000000    -2.531000000
H    -2.077000000    -0.734000000    -3.034000000
H    -1.682000000     0.027000000    -1.787000000
O     2.293000000     3.523000000     0.577000000
H     2.951000000     3.711000000     1.246000000
H     1.513000000     3.274000000     1.073000000
