158
-3032.69970
C    -1.017000000     0.142000000     1.092000000
H    -1.817000000     0.203000000     1.825000000
C    -0.933000000    -0.853000000     0.136000000
H    -1.716000000    -1.601000000     0.045000000
C     0.114000000    -0.960000000    -0.814000000
H     0.010000000    -1.737000000    -1.668000000
C     1.059000000     0.091000000    -0.836000000
H     1.822000000     0.205000000    -1.601000000
C     0.955000000     1.129000000     0.111000000
H     1.754000000     1.858000000     0.219000000
C    -0.041000000     1.107000000     1.103000000
C    -0.124000000     2.176000000     2.114000000
O    -1.049000000     2.202000000     2.913000000
O     0.679000000     3.125000000     2.070000000
O     3.544000000     3.795000000    -5.103000000
H     3.525000000     3.349000000    -4.256000000
H     4.241000000     4.446000000    -5.015000000
O     5.155000000    -3.482000000    -3.126000000
H     5.860000000    -2.857000000    -2.956000000
H     4.554000000    -3.013000000    -3.705000000
O     2.203000000    -2.541000000     0.552000000
H     1.460000000    -2.013000000     0.843000000
H     2.065000000    -2.652000000    -0.389000000
O     0.120000000     6.028000000     6.575000000
H     0.205000000     5.639000000     5.704000000
H     1.008000000     6.309000000     6.798000000
O    -2.621000000    -4.162000000     4.077000000
H    -3.097000000    -3.548000000     4.636000000
H    -3.024000000    -4.063000000     3.215000000
O     1.967000000     0.408000000     5.131000000
H     1.196000000     0.806000000     5.534000000
H     2.258000000    -0.246000000     5.766000000
O     5.806000000     0.673000000     1.720000000
H     6.227000000     1.064000000     2.485000000
H     5.229000000     1.360000000     1.387000000
O     1.813000000    -4.452000000    -2.296000000
H     1.520000000    -4.400000000    -3.206000000
H     1.888000000    -5.391000000    -2.122000000
O    -2.331000000    -6.103000000    -3.771000000
H    -1.417000000    -6.369000000    -3.667000000
H    -2.282000000    -5.197000000    -4.078000000
O    -0.842000000     4.578000000     0.588000000
H    -0.997000000     3.687000000     0.274000000
H    -0.325000000     4.465000000     1.385000000
O    -2.488000000    -3.358000000    -4.663000000
H    -3.430000000    -3.522000000    -4.611000000
H    -2.375000000    -2.862000000    -5.474000000
O     4.565000000    -4.190000000    -0.695000000
H     4.499000000    -4.171000000    -1.649000000
H     3.678000000    -4.393000000    -0.397000000
O    -3.610000000     5.675000000     0.928000000
H    -4.417000000     5.461000000     0.460000000
H    -2.962000000     5.063000000     0.579000000
O     0.201000000    -6.561000000    -3.600000000
H     0.730000000    -6.222000000    -4.323000000
H     0.829000000    -7.012000000    -3.035000000
O    -2.108000000    -6.259000000     0.763000000
H    -2.248000000    -5.521000000     1.357000000
H    -2.584000000    -6.985000000     1.167000000
O     2.517000000     4.969000000     0.604000000
H     1.927000000     4.601000000     1.261000000
H     2.206000000     4.610000000    -0.226000000
O    -3.205000000     2.540000000    -0.521000000
H    -2.835000000     1.757000000    -0.929000000
H    -3.568000000     2.229000000     0.308000000
O     0.995000000     1.887000000    -4.831000000
H     0.797000000     2.352000000    -4.017000000
H     0.316000000     1.215000000    -4.894000000
O    -6.536000000     0.126000000     0.520000000
H    -7.145000000    -0.574000000     0.754000000
H    -5.868000000     0.101000000     1.205000000
O     0.531000000    -1.727000000     3.583000000
H    -0.270000000    -1.266000000     3.833000000
H     0.938000000    -1.163000000     2.926000000
O    -3.668000000     0.465000000    -2.218000000
H    -3.828000000    -0.448000000    -1.979000000
H    -4.444000000     0.933000000    -1.910000000
O     4.303000000     2.860000000     0.852000000
H     3.978000000     3.751000000     0.722000000
H     3.899000000     2.576000000     1.672000000
O    -0.420000000     0.466000000     7.908000000
H    -0.896000000     0.995000000     7.267000000
H    -0.514000000    -0.433000000     7.593000000
O    -3.849000000    -3.310000000    -1.042000000
H    -4.201000000    -3.107000000    -1.909000000
H    -3.000000000    -3.716000000    -1.217000000
O     0.491000000     4.998000000     3.876000000
H     0.310000000     4.147000000     3.478000000
H     1.446000000     5.041000000     3.926000000
O     6.285000000     0.052000000    -3.131000000
H     6.586000000     0.046000000    -2.222000000
H     5.424000000     0.469000000    -3.095000000
O    -1.613000000    -0.348000000     4.416000000
H    -2.379000000    -0.893000000     4.598000000
H    -1.976000000     0.506000000     4.183000000
O    -3.568000000     2.516000000     5.244000000
H    -3.799000000     2.791000000     4.357000000
H    -3.365000000     3.331000000     5.703000000
O     3.086000000     3.150000000     5.988000000
H     2.476000000     2.609000000     6.489000000
H     3.114000000     2.741000000     5.123000000
O     4.101000000    -1.381000000     2.706000000
H     3.531000000    -1.445000000     1.940000000
H     4.698000000    -0.661000000     2.501000000
O     1.439000000    -5.967000000     1.770000000
H     1.050000000    -5.744000000     2.615000000
H     2.092000000    -5.283000000     1.619000000
O     2.896000000     2.239000000     3.124000000
H     2.072000000     2.655000000     2.871000000
H     2.632000000     1.492000000     3.662000000
O    -3.470000000     3.218000000     2.620000000
H    -3.138000000     4.115000000     2.637000000
H    -2.689000000     2.672000000     2.719000000
O     3.479000000    -1.827000000    -4.443000000
H     3.394000000    -0.885000000    -4.589000000
H     2.657000000    -2.195000000    -4.767000000
O     1.607000000     3.798000000    -1.851000000
H     0.836000000     3.237000000    -1.935000000
H     1.321000000     4.649000000    -2.182000000
O     4.464000000     3.165000000    -1.922000000
H     4.425000000     2.621000000    -1.136000000
H     3.573000000     3.501000000    -2.024000000
O    -3.923000000    -1.650000000     4.750000000
H    -4.790000000    -1.880000000     4.416000000
H    -4.098000000    -1.091000000     5.507000000
O     3.363000000    -4.214000000     2.387000000
H     3.864000000    -3.605000000     2.930000000
H     3.042000000    -3.679000000     1.661000000
O    -0.140000000     2.260000000     5.614000000
H    -0.549000000     2.109000000     4.762000000
H     0.263000000     3.125000000     5.537000000
O    -1.372000000    -4.599000000    -1.272000000
H    -0.446000000    -4.650000000    -1.510000000
H    -1.481000000    -5.262000000    -0.591000000
O    -5.982000000    -1.483000000    -1.844000000
H    -6.136000000    -0.803000000    -1.188000000
H    -5.864000000    -2.284000000    -1.334000000
O    -0.637000000     2.396000000    -2.737000000
H    -0.875000000     1.500000000    -2.498000000
H    -1.473000000     2.827000000    -2.914000000
O     0.665000000    -2.039000000    -5.716000000
H     0.752000000    -1.716000000    -6.612000000
H    -0.115000000    -1.597000000    -5.377000000
O    -4.009000000    -3.399000000     1.834000000
H    -3.931000000    -3.497000000     0.885000000
H    -4.550000000    -2.618000000     1.952000000
O     3.672000000     1.061000000    -4.621000000
H     4.091000000     1.743000000    -5.146000000
H     2.741000000     1.281000000    -4.640000000
O     1.253000000    -4.426000000    -5.235000000
H     1.827000000    -4.328000000    -5.995000000
H     0.734000000    -3.622000000    -5.222000000
O    -4.695000000     0.643000000     2.400000000
H    -4.850000000     0.051000000     3.136000000
H    -4.665000000     1.514000000     2.796000000
O    -1.762000000     0.346000000    -4.891000000
H    -2.123000000     0.325000000    -4.005000000
H    -2.422000000    -0.090000000    -5.429000000
