158
-3079.80661
C    -1.150000000     0.171000000     0.982000000
H    -1.977000000     0.143000000     1.687000000
C    -1.068000000    -0.900000000     0.077000000
H    -1.744000000    -1.748000000     0.158000000
C     0.118000000    -0.941000000    -0.813000000
H     0.381000000    -1.784000000    -1.490000000
C     1.029000000     0.043000000    -0.778000000
H     1.847000000    -0.050000000    -1.489000000
C     0.880000000     1.109000000     0.120000000
H     1.667000000     1.857000000     0.168000000
C    -0.231000000     1.215000000     0.978000000
C    -0.205000000     2.353000000     2.033000000
O    -1.131000000     2.474000000     2.779000000
O     0.698000000     3.159000000     2.042000000
O     2.217000000    -3.355000000     0.133000000
H     2.312000000    -3.778000000    -0.720000000
H     3.001000000    -2.812000000     0.219000000
O    -0.430000000     0.781000000    -6.342000000
H    -0.101000000     0.743000000    -5.444000000
H     0.358000000     0.823000000    -6.884000000
O     4.094000000     3.243000000    -0.804000000
H     3.236000000     3.642000000    -0.662000000
H     4.715000000     3.880000000    -0.451000000
O    -3.611000000     2.119000000     3.744000000
H    -3.786000000     1.223000000     3.456000000
H    -2.724000000     2.301000000     3.434000000
O    -4.117000000     4.114000000     2.143000000
H    -4.049000000     3.347000000     2.712000000
H    -4.378000000     4.824000000     2.729000000
O     0.444000000     7.363000000    -0.234000000
H    -0.311000000     7.355000000     0.354000000
H     0.105000000     7.721000000    -1.054000000
O     2.718000000    -0.919000000     3.000000000
H     1.858000000    -1.167000000     2.662000000
H     3.000000000    -0.200000000     2.434000000
O     3.418000000    -4.122000000    -2.467000000
H     2.981000000    -4.519000000    -3.221000000
H     3.661000000    -3.246000000    -2.765000000
O     4.651000000    -5.671000000    -0.644000000
H     4.410000000    -5.208000000    -1.447000000
H     5.034000000    -4.996000000    -0.085000000
O    -0.845000000     1.025000000    -3.168000000
H    -0.188000000     0.482000000    -2.732000000
H    -1.245000000     1.530000000    -2.460000000
O    -2.239000000    -6.703000000    -0.868000000
H    -1.293000000    -6.557000000    -0.867000000
H    -2.611000000    -5.864000000    -0.597000000
O    -4.913000000     2.906000000    -0.240000000
H    -5.719000000     3.405000000    -0.366000000
H    -4.474000000     3.339000000     0.492000000
O     4.742000000     1.821000000    -3.158000000
H     3.996000000     1.512000000    -3.672000000
H     4.352000000     2.366000000    -2.474000000
O    -1.118000000    -3.234000000     2.841000000
H    -0.215000000    -3.547000000     2.886000000
H    -1.642000000    -3.969000000     3.159000000
O     2.429000000     2.110000000    -4.898000000
H     2.011000000     1.329000000    -4.536000000
H     2.515000000     1.924000000    -5.833000000
O     3.493000000     2.180000000     2.346000000
H     2.678000000     2.674000000     2.253000000
H     4.165000000     2.849000000     2.476000000
O     0.678000000     6.882000000     4.269000000
H    -0.180000000     6.554000000     4.001000000
H     0.603000000     7.834000000     4.198000000
O     5.110000000     4.474000000     2.610000000
H     4.243000000     4.877000000     2.644000000
H     5.359000000     4.365000000     3.528000000
O    -3.185000000     1.267000000    -1.564000000
H    -2.852000000     0.803000000    -0.796000000
H    -3.766000000     1.938000000    -1.204000000
O    -4.035000000    -2.699000000    -1.728000000
H    -4.825000000    -2.607000000    -2.261000000
H    -4.131000000    -2.038000000    -1.042000000
O    -0.458000000    -4.837000000    -1.269000000
H    -0.119000000    -4.192000000    -0.648000000
H    -1.082000000    -4.348000000    -1.805000000
O    -2.123000000    -3.493000000    -3.407000000
H    -2.212000000    -2.623000000    -3.795000000
H    -2.705000000    -3.478000000    -2.647000000
O     3.332000000     1.257000000     5.175000000
H     4.289000000     1.293000000     5.164000000
H     3.072000000     1.535000000     4.297000000
O    -4.520000000     1.777000000     7.158000000
H    -4.604000000     2.616000000     7.611000000
H    -4.165000000     2.002000000     6.298000000
O     4.750000000    -0.996000000    -0.584000000
H     4.980000000    -0.121000000    -0.272000000
H     5.502000000    -1.540000000    -0.349000000
O    -4.309000000    -1.786000000     0.979000000
H    -3.775000000    -1.513000000     1.725000000
H    -5.211000000    -1.719000000     1.292000000
O     1.440000000    -3.724000000    -4.770000000
H     0.526000000    -3.966000000    -4.621000000
H     1.633000000    -4.049000000    -5.649000000
O    -1.525000000    -5.025000000    -5.274000000
H    -1.850000000    -4.332000000    -4.700000000
H    -1.754000000    -5.838000000    -4.822000000
O     0.891000000    -6.640000000    -2.649000000
H     0.385000000    -6.129000000    -2.018000000
H     1.345000000    -7.294000000    -2.118000000
O    -1.321000000     3.794000000     7.346000000
H    -1.687000000     2.987000000     7.709000000
H    -0.815000000     3.507000000     6.586000000
O    -3.173000000    -4.447000000     0.271000000
H    -3.485000000    -4.353000000     1.171000000
H    -3.517000000    -3.678000000    -0.183000000
O     2.044000000     4.593000000    -3.622000000
H     1.309000000     4.512000000    -3.014000000
H     2.146000000     3.717000000    -3.993000000
O     2.612000000     4.005000000     6.329000000
H     2.318000000     4.915000000     6.345000000
H     2.266000000     3.655000000     5.508000000
O     1.569000000    -3.908000000     2.813000000
H     1.572000000    -4.845000000     3.007000000
H     1.826000000    -3.853000000     1.892000000
O    -2.771000000    -0.910000000    -4.516000000
H    -2.350000000    -0.150000000    -4.114000000
H    -3.707000000    -0.718000000    -4.467000000
O     5.408000000     1.247000000     0.641000000
H     4.594000000     1.738000000     0.755000000
H     5.831000000     1.656000000    -0.114000000
O    -0.169000000     3.784000000    -1.978000000
H     0.478000000     4.204000000    -1.412000000
H    -1.013000000     4.096000000    -1.650000000
O    -5.228000000    -0.622000000    -3.537000000
H    -4.763000000    -0.064000000    -2.913000000
H    -5.904000000    -0.054000000    -3.908000000
O    -2.412000000     4.825000000     0.068000000
H    -2.301000000     5.775000000     0.038000000
H    -2.876000000     4.664000000     0.889000000
O    -1.456000000     3.153000000    -4.696000000
H    -1.143000000     2.624000000    -3.962000000
H    -2.258000000     2.716000000    -4.981000000
O    -3.016000000    -1.481000000     3.557000000
H    -2.802000000    -1.343000000     4.480000000
H    -2.313000000    -2.043000000     3.230000000
O     1.475000000    -0.416000000    -4.335000000
H     2.027000000    -0.918000000    -3.736000000
H     0.976000000    -1.079000000    -4.813000000
O    -1.584000000     5.329000000     2.943000000
H    -2.394000000     5.101000000     3.400000000
H    -1.154000000     4.489000000     2.783000000
O    -0.186000000     2.730000000     5.258000000
H     0.123000000     1.836000000     5.403000000
H    -0.605000000     2.701000000     4.397000000
O     2.212000000     4.829000000     3.381000000
H     1.585000000     4.199000000     3.026000000
H     1.671000000     5.476000000     3.834000000
O     0.748000000    -0.019000000     5.817000000
H     0.741000000    -0.941000000     5.563000000
H     1.636000000     0.278000000     5.620000000
O     1.564000000     4.688000000     0.095000000
H     1.285000000     4.180000000     0.857000000
H     1.168000000     5.550000000     0.225000000
O     3.790000000    -1.436000000    -3.094000000
H     4.044000000    -1.209000000    -2.199000000
H     4.582000000    -1.289000000    -3.612000000
