158
-3038.65752
C    -0.995000000    -0.163000000     1.172000000
H    -1.733000000    -0.433000000     1.924000000
C    -0.422000000    -1.207000000     0.461000000
H    -0.726000000    -2.220000000     0.713000000
C     0.382000000    -0.903000000    -0.654000000
H     0.813000000    -1.795000000    -1.114000000
C     0.737000000     0.406000000    -1.014000000
H     1.324000000     0.501000000    -1.924000000
C     0.267000000     1.444000000    -0.313000000
H     0.548000000     2.476000000    -0.506000000
C    -0.532000000     1.207000000     0.858000000
C    -0.951000000     2.319000000     1.730000000
O    -1.718000000     2.045000000     2.620000000
O    -0.606000000     3.420000000     1.412000000
O     0.869000000     6.658000000     4.921000000
H     0.868000000     5.753000000     5.233000000
H     0.216000000     6.671000000     4.221000000
O     3.506000000    -4.900000000     2.228000000
H     3.964000000    -4.635000000     3.025000000
H     3.998000000    -4.484000000     1.520000000
O     0.242000000    -3.455000000    -5.997000000
H     0.356000000    -3.797000000    -6.883000000
H     0.957000000    -2.828000000    -5.888000000
O    -2.673000000     0.512000000     4.553000000
H    -2.679000000    -0.422000000     4.343000000
H    -2.428000000     0.940000000     3.732000000
O    -5.929000000     0.182000000     2.518000000
H    -6.802000000     0.572000000     2.486000000
H    -5.861000000    -0.182000000     3.400000000
O    -4.245000000     2.706000000     1.987000000
H    -3.331000000     2.463000000     2.134000000
H    -4.740000000     1.915000000     2.199000000
O     3.484000000     4.705000000     0.362000000
H     3.351000000     3.904000000    -0.146000000
H     2.700000000     4.777000000     0.906000000
O     1.681000000    -0.888000000     2.153000000
H     0.926000000    -0.823000000     1.568000000
H     2.347000000    -0.333000000     1.746000000
O     1.388000000    -3.966000000    -0.408000000
H     2.122000000    -4.210000000    -0.971000000
H     1.729000000    -3.255000000     0.136000000
O    -0.764000000    -0.911000000    -4.011000000
H    -0.806000000    -1.836000000    -3.769000000
H    -1.194000000    -0.455000000    -3.287000000
O     4.325000000    -3.211000000    -5.185000000
H     5.214000000    -2.931000000    -5.402000000
H     4.191000000    -2.907000000    -4.287000000
O    -5.213000000     2.923000000    -0.724000000
H    -5.740000000     3.248000000     0.006000000
H    -4.507000000     2.428000000    -0.309000000
O    -4.668000000    -0.081000000     0.113000000
H    -5.046000000    -0.074000000     0.992000000
H    -5.425000000    -0.105000000    -0.473000000
O    -4.177000000     5.163000000     3.237000000
H    -4.371000000     4.266000000     2.964000000
H    -4.569000000     5.239000000     4.107000000
O     3.732000000     2.459000000    -1.059000000
H     3.261000000     2.898000000    -1.767000000
H     3.979000000     1.610000000    -1.425000000
O    -1.682000000    -4.465000000     2.407000000
H    -0.983000000    -4.989000000     2.799000000
H    -1.763000000    -4.804000000     1.515000000
O    -2.189000000     2.586000000    -3.027000000
H    -2.149000000     3.144000000    -2.249000000
H    -2.664000000     1.807000000    -2.739000000
O     1.879000000     0.419000000    -7.231000000
H     1.940000000    -0.305000000    -6.608000000
H     2.629000000     0.298000000    -7.813000000
O     3.183000000     1.497000000     1.631000000
H     3.399000000     2.093000000     2.349000000
H     3.402000000     1.987000000     0.839000000
O     3.673000000     1.837000000    -5.049000000
H     4.146000000     1.675000000    -4.232000000
H     2.801000000     1.473000000    -4.897000000
O    -1.155000000     3.118000000     4.968000000
H    -1.440000000     2.409000000     4.391000000
H    -0.980000000     3.852000000     4.379000000
O    -2.529000000     0.102000000    -1.577000000
H    -1.837000000     0.174000000    -0.920000000
H    -3.342000000     0.174000000    -1.078000000
O    -2.947000000    -5.563000000    -0.195000000
H    -2.597000000    -5.676000000    -1.079000000
H    -3.449000000    -4.748000000    -0.239000000
O     0.559000000    -7.016000000    -0.142000000
H     0.833000000    -6.110000000    -0.285000000
H     0.468000000    -7.381000000    -1.022000000
O    -1.531000000     3.570000000     7.637000000
H    -0.922000000     2.998000000     8.104000000
H    -1.303000000     3.460000000     6.714000000
O    -3.704000000     1.755000000     6.942000000
H    -3.309000000     1.283000000     6.209000000
H    -2.959000000     2.068000000     7.456000000
O     3.661000000    -2.393000000     0.312000000
H     4.555000000    -2.729000000     0.374000000
H     3.615000000    -1.708000000     0.979000000
O    -2.203000000    -5.595000000    -2.811000000
H    -1.595000000    -5.929000000    -3.471000000
H    -2.970000000    -5.316000000    -3.311000000
O     3.400000000     6.428000000    -1.508000000
H     3.480000000     5.757000000    -0.830000000
H     2.475000000     6.673000000    -1.493000000
O     4.593000000     0.458000000    -2.968000000
H     5.480000000     0.253000000    -3.262000000
H     4.192000000    -0.395000000    -2.804000000
O     1.450000000    -6.924000000    -3.259000000
H     0.863000000    -6.781000000    -4.002000000
H     1.053000000    -7.649000000    -2.776000000
O     3.378000000    -2.185000000    -2.627000000
H     3.597000000    -2.098000000    -1.699000000
H     3.212000000    -3.120000000    -2.747000000
O     1.579000000     3.771000000    -2.491000000
H     0.917000000     4.432000000    -2.692000000
H     1.146000000     2.936000000    -2.668000000
O     3.485000000    -4.955000000    -2.147000000
H     3.111000000    -5.677000000    -2.652000000
H     3.954000000    -5.381000000    -1.430000000
O     0.963000000    -5.215000000     3.206000000
H     0.928000000    -6.149000000     2.999000000
H     1.764000000    -4.906000000     2.782000000
O     0.830000000     6.795000000    -0.640000000
H     0.243000000     6.108000000    -0.326000000
H     0.523000000     7.590000000    -0.204000000
O    -3.101000000    -2.737000000    -0.383000000
H    -3.519000000    -1.893000000    -0.213000000
H    -2.415000000    -2.540000000    -1.021000000
O    -1.779000000     4.144000000    -0.889000000
H    -2.533000000     4.610000000    -0.526000000
H    -1.325000000     3.791000000    -0.124000000
O     0.311000000     1.610000000    -4.299000000
H    -0.483000000     2.126000000    -4.158000000
H     0.028000000     0.702000000    -4.198000000
O    -2.584000000    -2.515000000     4.352000000
H    -2.037000000    -2.849000000     5.064000000
H    -2.524000000    -3.184000000     3.670000000
O    -6.059000000    -2.781000000     3.252000000
H    -5.402000000    -2.286000000     2.763000000
H    -5.571000000    -3.178000000     3.974000000
O    -0.680000000    -3.171000000    -2.363000000
H     0.013000000    -3.281000000    -1.712000000
H    -1.083000000    -4.037000000    -2.431000000
O    -1.614000000     5.314000000     3.254000000
H    -2.564000000     5.263000000     3.357000000
H    -1.412000000     4.672000000     2.573000000
O    -0.281000000     0.001000000     6.158000000
H     0.033000000    -0.614000000     5.495000000
H    -1.148000000     0.264000000     5.849000000
O     1.740000000     2.019000000     5.771000000
H     1.177000000     2.722000000     5.449000000
H     1.132000000     1.340000000     6.065000000
O     0.842000000    -1.925000000     4.465000000
H     0.332000000    -2.632000000     4.069000000
H     1.088000000    -1.365000000     3.729000000
O     1.339000000     4.976000000     2.084000000
H     0.704000000     4.315000000     1.807000000
H     0.851000000     5.541000000     2.683000000
O     1.800000000    -1.240000000    -4.837000000
H     2.452000000    -1.478000000    -4.177000000
H     1.011000000    -1.040000000    -4.333000000
