158
-3075.00499
C    -0.708000000    -0.139000000     1.361000000
H    -1.256000000    -0.388000000     2.266000000
C    -0.040000000    -1.147000000     0.652000000
H    -0.046000000    -2.139000000     1.098000000
C     0.607000000    -0.910000000    -0.605000000
H     0.991000000    -1.707000000    -1.200000000
C     0.594000000     0.387000000    -1.074000000
H     0.986000000     0.683000000    -2.044000000
C    -0.065000000     1.435000000    -0.445000000
H    -0.029000000     2.393000000    -0.958000000
C    -0.741000000     1.210000000     0.782000000
C    -1.470000000     2.315000000     1.377000000
O    -2.273000000     2.069000000     2.278000000
O    -1.249000000     3.470000000     1.070000000
O    -2.917000000     0.818000000     4.361000000
H    -3.018000000    -0.024000000     3.917000000
H    -3.116000000     1.469000000     3.688000000
O    -6.416000000    -0.112000000     2.848000000
H    -6.938000000    -0.843000000     2.518000000
H    -5.641000000    -0.524000000     3.230000000
O    -4.784000000     1.789000000     0.892000000
H    -3.982000000     1.674000000     1.403000000
H    -5.361000000     1.087000000     1.191000000
O     3.352000000     2.497000000     0.188000000
H     3.537000000     2.297000000    -0.729000000
H     2.718000000     3.213000000     0.155000000
O     2.573000000    -1.934000000     3.189000000
H     2.593000000    -1.165000000     2.620000000
H     2.180000000    -1.619000000     4.003000000
O     0.981000000    -5.623000000    -1.335000000
H     1.794000000    -5.519000000    -1.830000000
H     1.049000000    -6.493000000    -0.942000000
O     0.660000000    -4.457000000     3.321000000
H     0.791000000    -5.317000000     2.922000000
H     1.406000000    -3.938000000     3.022000000
O     6.456000000    -3.469000000    -3.915000000
H     5.857000000    -3.150000000    -3.239000000
H     5.882000000    -3.781000000    -4.615000000
O     4.200000000    -6.171000000     0.306000000
H     5.127000000    -6.296000000     0.510000000
H     3.983000000    -5.320000000     0.685000000
O    -1.889000000    -1.762000000    -3.821000000
H    -2.330000000    -2.600000000    -3.677000000
H    -2.261000000    -1.180000000    -3.159000000
O     0.027000000    -2.168000000    -6.931000000
H     0.187000000    -2.762000000    -6.198000000
H    -0.148000000    -2.747000000    -7.674000000
O    -4.458000000     3.287000000    -1.729000000
H    -4.614000000     2.683000000    -1.003000000
H    -4.540000000     4.157000000    -1.337000000
O    -2.869000000    -5.944000000     2.950000000
H    -1.938000000    -5.757000000     2.830000000
H    -3.017000000    -5.834000000     3.889000000
O    -4.213000000    -1.978000000     0.686000000
H    -3.786000000    -2.193000000     1.515000000
H    -5.058000000    -1.607000000     0.940000000
O    -5.160000000     5.456000000     1.423000000
H    -5.972000000     4.987000000     1.618000000
H    -4.520000000     5.092000000     2.034000000
O     2.636000000     3.250000000    -4.453000000
H     1.790000000     3.368000000    -4.021000000
H     2.569000000     2.396000000    -4.881000000
O    -4.417000000    -4.772000000     1.081000000
H    -3.735000000    -5.215000000     1.585000000
H    -3.940000000    -4.282000000     0.412000000
O    -0.472000000     0.180000000    -5.284000000
H    -1.139000000    -0.127000000    -4.669000000
H    -0.297000000    -0.576000000    -5.844000000
O     2.792000000     0.189000000     1.278000000
H     3.074000000     1.088000000     1.107000000
H     2.260000000    -0.044000000     0.517000000
O     2.237000000     0.929000000    -5.527000000
H     2.625000000     0.058000000    -5.431000000
H     1.293000000     0.775000000    -5.494000000
O    -0.646000000     3.200000000     4.919000000
H    -0.938000000     2.683000000     4.168000000
H    -0.828000000     4.107000000     4.670000000
O    -4.109000000     3.771000000     3.270000000
H    -3.463000000     3.183000000     2.878000000
H    -3.608000000     4.294000000     3.896000000
O     2.103000000     4.842000000     3.267000000
H     3.045000000     4.957000000     3.138000000
H     2.009000000     3.930000000     3.542000000
O    -3.339000000    -0.713000000    -1.759000000
H    -3.272000000    -1.088000000    -0.881000000
H    -4.105000000    -0.140000000    -1.717000000
O     1.301000000     6.344000000    -1.489000000
H     1.263000000     5.586000000    -0.905000000
H     0.873000000     6.049000000    -2.293000000
O    -4.449000000     1.844000000     6.757000000
H    -4.384000000     1.569000000     5.842000000
H    -5.372000000     1.719000000     6.978000000
O     3.884000000     1.997000000    -2.350000000
H     3.422000000     2.597000000    -2.935000000
H     4.789000000     2.008000000    -2.660000000
O    -1.356000000     7.942000000    -1.199000000
H    -0.793000000     7.203000000    -1.429000000
H    -0.842000000     8.449000000    -0.571000000
O     3.263000000    -1.472000000    -5.543000000
H     3.433000000    -2.074000000    -6.267000000
H     3.009000000    -2.039000000    -4.815000000
O    -1.132000000    -6.225000000    -3.191000000
H    -0.298000000    -6.047000000    -2.756000000
H    -0.983000000    -5.980000000    -4.104000000
O     2.746000000    -2.856000000    -2.728000000
H     3.275000000    -2.401000000    -2.073000000
H     3.011000000    -3.773000000    -2.655000000
O    -0.176000000     4.521000000    -3.646000000
H    -0.841000000     4.802000000    -3.018000000
H    -0.676000000     4.185000000    -4.390000000
O     3.410000000    -5.686000000    -2.380000000
H     3.729000000    -6.414000000    -2.913000000
H     3.910000000    -5.747000000    -1.566000000
O     5.011000000    -2.530000000    -1.193000000
H     5.837000000    -2.220000000    -0.822000000
H     4.621000000    -3.062000000    -0.500000000
O    -1.451000000    -4.658000000     0.324000000
H    -1.272000000    -5.501000000     0.741000000
H    -0.734000000    -4.543000000    -0.300000000
O     4.485000000    -3.298000000     1.531000000
H     5.171000000    -3.198000000     2.191000000
H     3.777000000    -2.729000000     1.834000000
O    -1.542000000     4.928000000    -1.421000000
H    -2.369000000     5.403000000    -1.342000000
H    -1.545000000     4.318000000    -0.683000000
O     1.880000000    -0.628000000     5.776000000
H     1.395000000     0.190000000     5.886000000
H     2.606000000    -0.561000000     6.396000000
O    -3.828000000    -1.798000000     3.431000000
H    -4.369000000    -2.236000000     4.089000000
H    -3.151000000    -2.439000000     3.213000000
O    -3.557000000    -4.359000000    -2.934000000
H    -2.784000000    -4.797000000    -2.577000000
H    -3.604000000    -4.658000000    -3.842000000
O    -3.941000000     6.174000000    -0.889000000
H    -3.616000000     7.015000000    -0.567000000
H    -4.123000000     5.668000000    -0.096000000
O    -1.819000000     5.474000000     2.950000000
H    -2.257000000     6.169000000     2.459000000
H    -1.746000000     4.750000000     2.328000000
O    -2.194000000    -0.503000000     6.655000000
H    -1.997000000    -1.409000000     6.415000000
H    -2.276000000    -0.046000000     5.819000000
O     0.404000000    -3.122000000     5.731000000
H     0.642000000    -3.679000000     4.990000000
H     0.901000000    -2.316000000     5.594000000
O    -0.255000000     1.779000000     7.103000000
H    -0.648000000     2.123000000     6.301000000
H    -0.833000000     1.063000000     7.365000000
O    -1.701000000    -3.413000000     2.701000000
H    -1.741000000    -3.699000000     1.788000000
H    -0.818000000    -3.646000000     2.986000000
O     1.136000000     4.501000000     0.615000000
H     0.277000000     4.091000000     0.509000000
H     1.123000000     4.857000000     1.504000000
O     0.425000000    -3.038000000    -4.286000000
H     1.087000000    -2.900000000    -3.608000000
H    -0.331000000    -2.531000000    -3.990000000
