158
-3041.72459
C    -0.140000000     0.636000000     1.324000000
H    -0.001000000     0.964000000     2.350000000
C    -0.105000000    -0.713000000     1.038000000
H    -0.225000000    -1.466000000     1.813000000
C    -0.039000000    -1.175000000    -0.290000000
H    -0.043000000    -2.188000000    -0.491000000
C     0.192000000    -0.264000000    -1.296000000
H     0.160000000    -0.585000000    -2.334000000
C     0.119000000     1.082000000    -0.966000000
H     0.204000000     1.819000000    -1.761000000
C     0.014000000     1.537000000     0.304000000
C     0.101000000     2.998000000     0.590000000
O     0.060000000     3.377000000     1.696000000
O     0.364000000     3.820000000    -0.330000000
O     5.758000000    -4.781000000     0.925000000
H     5.208000000    -5.545000000     1.097000000
H     5.187000000    -4.177000000     0.451000000
O     2.936000000    -1.654000000     6.625000000
H     3.460000000    -2.395000000     6.321000000
H     2.383000000    -1.428000000     5.877000000
O    -3.069000000    -0.200000000    -0.099000000
H    -3.388000000     0.654000000    -0.389000000
H    -2.134000000    -0.068000000     0.052000000
O     1.357000000    -1.593000000    -6.411000000
H     1.454000000    -0.745000000    -6.845000000
H     2.054000000    -1.608000000    -5.755000000
O    -0.474000000    -3.665000000    -2.726000000
H    -0.938000000    -3.481000000    -3.543000000
H    -1.166000000    -3.755000000    -2.072000000
O    -2.613000000     3.952000000     1.902000000
H    -2.987000000     3.182000000     2.329000000
H    -1.723000000     3.688000000     1.670000000
O    -3.465000000     5.735000000    -0.415000000
H    -4.019000000     6.091000000     0.279000000
H    -2.828000000     5.189000000     0.044000000
O    -0.133000000     6.446000000    -0.481000000
H     0.145000000     5.561000000    -0.245000000
H    -0.571000000     6.342000000    -1.325000000
O    -3.443000000    -4.646000000    -4.504000000
H    -4.337000000    -4.349000000    -4.336000000
H    -2.915000000    -3.848000000    -4.474000000
O    -3.436000000    -6.768000000    -2.870000000
H    -3.332000000    -6.170000000    -2.129000000
H    -3.523000000    -6.193000000    -3.631000000
O     3.436000000    -0.959000000     2.820000000
H     2.816000000    -0.767000000     3.523000000
H     3.556000000    -0.122000000     2.371000000
O     1.458000000    -0.561000000     4.519000000
H     1.020000000     0.223000000     4.850000000
H     0.792000000    -1.246000000     4.566000000
O     1.658000000     2.261000000    -4.480000000
H     1.583000000     2.952000000    -3.822000000
H     2.206000000     1.594000000    -4.066000000
O    -1.458000000     8.565000000     0.955000000
H    -0.905000000     7.878000000     0.584000000
H    -1.329000000     8.492000000     1.901000000
O    -3.815000000    -0.857000000     2.574000000
H    -3.576000000    -0.410000000     1.763000000
H    -4.741000000    -1.075000000     2.464000000
O    -4.555000000    -4.575000000    -0.567000000
H    -5.430000000    -4.287000000    -0.307000000
H    -4.183000000    -3.824000000    -1.031000000
O     4.033000000     1.550000000     1.523000000
H     4.324000000     2.362000000     1.108000000
H     4.529000000     1.508000000     2.341000000
O    -1.735000000     6.059000000    -2.456000000
H    -2.342000000     6.068000000    -1.716000000
H    -2.297000000     6.124000000    -3.228000000
O     5.229000000     3.599000000     0.103000000
H     4.730000000     3.597000000    -0.713000000
H     4.983000000     4.419000000     0.533000000
O    -3.274000000    -6.201000000     1.425000000
H    -3.663000000    -5.586000000     0.804000000
H    -2.336000000    -6.017000000     1.389000000
O     2.779000000    -3.331000000     1.900000000
H     3.092000000    -2.623000000     2.464000000
H     3.272000000    -3.225000000     1.087000000
O     2.058000000     5.487000000     5.473000000
H     1.533000000     4.957000000     6.072000000
H     1.922000000     5.085000000     4.615000000
O    -3.798000000     1.340000000    -5.485000000
H    -3.907000000     1.697000000    -6.366000000
H    -2.973000000     0.856000000    -5.524000000
O     3.047000000     5.999000000    -0.238000000
H     2.939000000     5.823000000     0.697000000
H     2.190000000     6.317000000    -0.522000000
O    -3.248000000     5.442000000     4.494000000
H    -2.347000000     5.157000000     4.342000000
H    -3.178000000     6.384000000     4.649000000
O     3.149000000    -0.103000000    -0.431000000
H     3.168000000     0.207000000     0.474000000
H     2.260000000     0.086000000    -0.731000000
O    -4.277000000     2.064000000    -0.784000000
H    -5.066000000     2.052000000    -1.325000000
H    -4.090000000     2.993000000    -0.653000000
O     1.898000000    -5.208000000    -3.272000000
H     1.070000000    -4.772000000    -3.073000000
H     1.816000000    -6.074000000    -2.871000000
O     4.208000000    -2.717000000    -0.261000000
H     3.810000000    -1.876000000    -0.486000000
H     4.204000000    -3.210000000    -1.081000000
O     4.912000000     2.884000000    -2.601000000
H     5.205000000     2.411000000    -1.822000000
H     4.362000000     2.256000000    -3.070000000
O     4.438000000    -4.123000000    -2.648000000
H     3.599000000    -4.180000000    -3.104000000
H     4.555000000    -4.987000000    -2.254000000
O    -0.497000000    -6.326000000     0.998000000
H    -0.042000000    -5.913000000     1.732000000
H     0.186000000    -6.465000000     0.342000000
O    -2.499000000    -3.539000000     3.975000000
H    -2.009000000    -4.248000000     3.559000000
H    -3.247000000    -3.393000000     3.396000000
O     3.946000000    -1.418000000    -4.773000000
H     4.196000000    -1.696000000    -5.654000000
H     4.769000000    -1.153000000    -4.362000000
O     3.865000000    -6.219000000     1.929000000
H     2.918000000    -6.119000000     2.030000000
H     3.987000000    -7.146000000     1.727000000
O    -2.042000000    -2.208000000    -4.835000000
H    -2.161000000    -2.025000000    -3.903000000
H    -1.290000000    -1.673000000    -5.089000000
O     1.990000000     4.076000000    -2.533000000
H     1.299000000     3.949000000    -1.884000000
H     2.636000000     4.626000000    -2.091000000
O    -1.210000000     3.795000000    -3.828000000
H    -1.283000000     4.578000000    -3.282000000
H    -1.806000000     3.165000000    -3.424000000
O    -0.716000000     0.850000000    -5.411000000
H     0.024000000     1.408000000    -5.172000000
H    -0.600000000     0.688000000    -6.348000000
O     1.531000000    -5.519000000     2.727000000
H     1.740000000    -5.606000000     3.657000000
H     1.986000000    -4.722000000     2.453000000
O     0.102000000     3.520000000    -6.290000000
H     0.903000000     3.117000000    -5.956000000
H    -0.455000000     3.620000000    -5.518000000
O     3.500000000     0.560000000    -2.991000000
H     3.568000000     0.245000000    -2.090000000
H     3.411000000    -0.235000000    -3.517000000
O    -2.795000000     0.795000000     4.448000000
H    -3.145000000     0.075000000     3.923000000
H    -3.486000000     0.987000000     5.083000000
O    -0.486000000     4.791000000     3.839000000
H    -0.403000000     5.594000000     3.326000000
H    -0.357000000     4.086000000     3.205000000
O    -3.310000000    -2.122000000    -2.169000000
H    -3.198000000    -1.555000000    -1.406000000
H    -3.724000000    -1.562000000    -2.826000000
O    -0.489000000     1.993000000     5.038000000
H    -1.253000000     1.468000000     4.801000000
H    -0.706000000     2.878000000     4.745000000
O     2.581000000     4.575000000     2.326000000
H     1.719000000     4.368000000     1.964000000
H     2.601000000     4.124000000     3.170000000
O    -0.302000000    -2.471000000     5.375000000
H    -1.158000000    -2.482000000     4.946000000
H    -0.493000000    -2.652000000     6.295000000
