158
-3032.55187
C     0.981000000     0.453000000     1.053000000
H     1.784000000     0.688000000     1.746000000
C     0.623000000    -0.863000000     0.771000000
H     1.036000000    -1.692000000     1.341000000
C    -0.369000000    -1.182000000    -0.127000000
H    -0.739000000    -2.226000000    -0.205000000
C    -1.009000000    -0.193000000    -0.827000000
H    -1.754000000    -0.442000000    -1.577000000
C    -0.682000000     1.135000000    -0.605000000
H    -1.070000000     1.903000000    -1.270000000
C     0.429000000     1.473000000     0.289000000
C     0.903000000     2.987000000     0.479000000
O     1.750000000     3.225000000     1.306000000
O     0.653000000     3.870000000    -0.329000000
O    -4.405000000    -1.362000000    -1.935000000
H    -4.386000000    -0.455000000    -1.630000000
H    -4.076000000    -1.321000000    -2.833000000
O     5.861000000    -1.040000000     1.701000000
H     5.326000000    -0.566000000     2.338000000
H     5.226000000    -1.445000000     1.111000000
O    -2.568000000     0.630000000     1.497000000
H    -1.798000000     0.691000000     0.931000000
H    -3.311000000     0.688000000     0.896000000
O    -4.166000000     3.837000000    -0.261000000
H    -4.799000000     4.218000000     0.348000000
H    -3.318000000     4.163000000     0.040000000
O     2.714000000     4.371000000    -2.989000000
H     2.296000000     4.840000000    -2.266000000
H     2.915000000     5.052000000    -3.631000000
O     0.419000000     8.170000000     2.111000000
H     0.765000000     9.043000000     2.295000000
H     0.743000000     7.963000000     1.234000000
O     4.152000000    -0.315000000     3.667000000
H     3.307000000    -0.368000000     4.113000000
H     4.445000000     0.584000000     3.816000000
O     1.922000000     0.222000000     5.576000000
H     1.035000000     0.021000000     5.274000000
H     2.160000000    -0.521000000     6.130000000
O    -0.560000000     0.606000000    -5.109000000
H     0.083000000     0.215000000    -5.700000000
H    -0.036000000     1.091000000    -4.472000000
O     2.653000000     7.870000000     3.901000000
H     2.858000000     7.090000000     3.385000000
H     1.998000000     8.336000000     3.381000000
O    -1.734000000     4.882000000     0.649000000
H    -0.903000000     4.794000000     0.181000000
H    -1.547000000     4.557000000     1.530000000
O    -2.619000000    -2.322000000     2.012000000
H    -2.642000000    -2.607000000     1.099000000
H    -2.452000000    -1.380000000     1.964000000
O     4.930000000     6.444000000     0.303000000
H     4.099000000     6.060000000     0.027000000
H     5.282000000     6.850000000    -0.490000000
O     4.548000000     2.941000000     0.436000000
H     3.682000000     3.180000000     0.765000000
H     5.091000000     2.868000000     1.221000000
O    -0.304000000     7.721000000    -3.591000000
H     0.035000000     7.753000000    -4.486000000
H     0.107000000     6.947000000    -3.207000000
O     0.244000000     8.366000000    -0.741000000
H    -0.615000000     8.413000000    -0.323000000
H     0.060000000     8.085000000    -1.638000000
O    -2.432000000    -6.554000000    -0.501000000
H    -2.556000000    -5.638000000    -0.747000000
H    -1.687000000    -6.542000000     0.101000000
O     3.523000000    -1.595000000     0.268000000
H     3.930000000    -0.894000000    -0.241000000
H     2.592000000    -1.373000000     0.282000000
O     1.067000000     4.003000000     6.619000000
H     1.983000000     3.987000000     6.896000000
H     1.033000000     3.410000000     5.869000000
O    -3.685000000    -0.782000000    -4.398000000
H    -3.576000000    -0.038000000    -4.990000000
H    -3.689000000    -1.547000000    -4.973000000
O     2.270000000     5.813000000    -0.645000000
H     1.707000000     5.041000000    -0.594000000
H     1.671000000     6.553000000    -0.549000000
O    -2.664000000     4.043000000    -2.502000000
H    -2.872000000     3.534000000    -1.718000000
H    -3.206000000     3.656000000    -3.189000000
O     4.341000000     4.564000000     5.177000000
H     4.667000000     5.250000000     5.760000000
H     3.932000000     5.039000000     4.454000000
O    -3.406000000     6.970000000     1.810000000
H    -2.794000000     6.349000000     1.415000000
H    -3.003000000     7.827000000     1.669000000
O     0.804000000    -5.717000000    -4.996000000
H     0.480000000    -4.901000000    -4.614000000
H     1.756000000    -5.620000000    -4.997000000
O     3.197000000     0.893000000    -1.336000000
H     4.086000000     0.948000000    -0.986000000
H     2.801000000     1.737000000    -1.120000000
O    -4.405000000     1.252000000    -0.452000000
H    -5.321000000     0.993000000    -0.355000000
H    -4.423000000     2.209000000    -0.430000000
O    -1.977000000    -4.187000000    -2.960000000
H    -2.144000000    -4.080000000    -2.024000000
H    -1.117000000    -3.789000000    -3.097000000
O     1.507000000     2.117000000    -4.037000000
H     1.722000000     1.295000000    -3.595000000
H     2.030000000     2.777000000    -3.583000000
O     0.287000000    -3.114000000    -3.437000000
H    -0.025000000    -2.617000000    -4.193000000
H     1.218000000    -3.253000000    -3.610000000
O     0.778000000    -4.739000000     0.109000000
H     1.002000000    -5.624000000     0.396000000
H     1.614000000    -4.351000000    -0.147000000
O    -3.211000000    -3.485000000     4.636000000
H    -3.111000000    -2.926000000     3.866000000
H    -3.098000000    -2.892000000     5.379000000
O     0.853000000    -2.660000000     4.184000000
H     0.017000000    -3.056000000     4.427000000
H     0.648000000    -1.736000000     4.038000000
O    -0.456000000    -2.797000000    -5.949000000
H    -1.321000000    -2.784000000    -6.358000000
H     0.068000000    -2.197000000    -6.480000000
O     5.573000000     3.657000000    -2.202000000
H     5.349000000     3.390000000    -1.311000000
H     4.737000000     3.908000000    -2.594000000
O    -5.785000000    -4.835000000    -0.056000000
H    -5.987000000    -5.735000000    -0.314000000
H    -6.576000000    -4.341000000    -0.272000000
O     2.947000000    -3.413000000    -4.172000000
H     3.813000000    -3.490000000    -4.571000000
H     2.874000000    -2.488000000    -3.935000000
O    -0.088000000     5.329000000    -2.357000000
H     0.292000000     4.837000000    -1.629000000
H    -0.926000000     4.899000000    -2.526000000
O     3.156000000    -4.416000000     3.948000000
H     2.391000000    -3.934000000     4.262000000
H     3.489000000    -3.890000000     3.221000000
O     1.575000000    -7.099000000     1.514000000
H     0.755000000    -7.593000000     1.514000000
H     1.758000000    -6.937000000     2.439000000
O     2.039000000    -0.707000000    -3.382000000
H     2.521000000    -0.268000000    -2.682000000
H     1.424000000    -1.282000000    -2.926000000
O    -2.810000000     1.501000000     4.048000000
H    -2.530000000     1.126000000     3.213000000
H    -2.509000000     2.409000000     4.016000000
O     5.321000000     2.108000000     4.256000000
H     5.915000000     2.405000000     3.567000000
H     5.193000000     2.878000000     4.810000000
O    -1.538000000     4.570000000     3.404000000
H    -2.231000000     5.050000000     3.857000000
H    -0.801000000     4.578000000     4.015000000
O    -3.259000000    -3.666000000    -0.508000000
H    -3.577000000    -2.946000000    -1.052000000
H    -3.981000000    -4.294000000    -0.497000000
O     0.990000000     2.518000000     4.384000000
H     1.784000000     2.003000000     4.526000000
H     0.868000000     2.512000000     3.434000000
O     2.551000000     5.508000000     2.617000000
H     2.202000000     4.637000000     2.433000000
H     2.666000000     5.908000000     1.755000000
O    -0.830000000    -0.292000000     5.163000000
H    -1.099000000    -0.784000000     5.938000000
H    -1.646000000    -0.116000000     4.695000000
