158
-3062.71405
C    -0.527000000     1.219000000    -0.713000000
H    -0.955000000     2.113000000    -1.158000000
C     0.620000000     1.208000000     0.123000000
H     0.971000000     2.157000000     0.521000000
C     1.068000000    -0.033000000     0.650000000
H     1.864000000     0.044000000     1.444000000
C     0.482000000    -1.230000000     0.323000000
H     0.901000000    -2.107000000     0.810000000
C    -0.661000000    -1.186000000    -0.505000000
H    -1.242000000    -2.085000000    -0.696000000
C    -1.088000000     0.024000000    -1.049000000
C    -2.392000000    -0.058000000    -1.913000000
O    -2.702000000     0.872000000    -2.614000000
O    -3.099000000    -1.053000000    -1.790000000
O     6.099000000     1.362000000    -0.923000000
H     5.191000000     1.586000000    -0.721000000
H     6.172000000     1.485000000    -1.869000000
O     1.774000000    -5.649000000    -1.006000000
H     1.361000000    -6.467000000    -0.730000000
H     2.712000000    -5.840000000    -0.997000000
O     0.387000000     3.091000000     3.170000000
H    -0.315000000     3.094000000     3.821000000
H     0.335000000     3.955000000     2.759000000
O     0.554000000     1.623000000    -6.502000000
H    -0.125000000     2.151000000    -6.080000000
H     0.212000000     0.730000000    -6.475000000
O     2.439000000    -1.290000000    -2.199000000
H     2.433000000    -0.368000000    -2.455000000
H     1.547000000    -1.460000000    -1.896000000
O     6.532000000    -2.627000000     4.177000000
H     6.598000000    -1.753000000     3.795000000
H     7.368000000    -2.756000000     4.626000000
O     6.878000000    -1.749000000    -0.504000000
H     5.926000000    -1.776000000    -0.414000000
H     7.057000000    -0.893000000    -0.893000000
O    -3.483000000    -2.493000000    -3.934000000
H    -4.246000000    -2.209000000    -4.436000000
H    -3.529000000    -1.987000000    -3.122000000
O    -3.676000000     6.367000000    -1.046000000
H    -4.236000000     5.855000000    -1.629000000
H    -3.460000000     5.767000000    -0.333000000
O    -3.995000000    -2.758000000     2.275000000
H    -3.138000000    -3.183000000     2.299000000
H    -4.253000000    -2.790000000     1.354000000
O    -0.013000000    -4.732000000     1.329000000
H    -0.012000000    -5.267000000     0.536000000
H     0.903000000    -4.481000000     1.450000000
O    -3.230000000     3.221000000    -1.006000000
H    -3.126000000     2.887000000    -0.115000000
H    -2.892000000     2.521000000    -1.565000000
O    -5.641000000    -0.213000000    -1.680000000
H    -4.734000000    -0.387000000    -1.432000000
H    -6.128000000    -0.972000000    -1.358000000
O    -3.640000000     2.382000000     1.497000000
H    -2.936000000     1.789000000     1.761000000
H    -4.441000000     1.950000000     1.794000000
O    -0.492000000    -0.991000000    -5.344000000
H    -0.893000000    -1.856000000    -5.258000000
H    -0.424000000    -0.668000000    -4.445000000
O    -1.243000000     2.413000000    -4.173000000
H    -1.849000000     1.784000000    -3.780000000
H    -1.808000000     3.089000000    -4.545000000
O     4.293000000    -1.367000000    -0.082000000
H     3.463000000    -1.520000000    -0.532000000
H     4.048000000    -0.922000000     0.730000000
O    -2.023000000    -4.163000000    -2.374000000
H    -2.557000000    -3.751000000    -3.054000000
H    -1.834000000    -5.037000000    -2.715000000
O    -1.544000000     0.816000000     2.209000000
H    -0.928000000     1.506000000     2.454000000
H    -1.078000000     0.301000000     1.550000000
O    -4.076000000    -2.957000000    -0.353000000
H    -3.733000000    -2.137000000    -0.707000000
H    -3.647000000    -3.639000000    -0.870000000
O     4.380000000    -4.947000000     0.092000000
H     3.958000000    -4.094000000    -0.015000000
H     5.293000000    -4.793000000    -0.150000000
O     3.309000000     3.536000000     5.928000000
H     3.661000000     4.406000000     5.737000000
H     3.281000000     3.098000000     5.077000000
O     2.459000000     3.343000000    -2.189000000
H     2.568000000     2.459000000    -2.540000000
H     2.876000000     3.311000000    -1.328000000
O     0.114000000    -1.485000000     4.043000000
H     0.216000000    -0.786000000     3.397000000
H    -0.784000000    -1.794000000     3.923000000
O     0.503000000    -3.281000000    -2.819000000
H    -0.374000000    -3.177000000    -2.450000000
H     0.931000000    -3.916000000    -2.245000000
O    -3.999000000     1.535000000    -7.249000000
H    -3.599000000     2.404000000    -7.209000000
H    -4.190000000     1.317000000    -6.337000000
O    -6.358000000    -1.788000000    -4.708000000
H    -7.017000000    -1.892000000    -4.021000000
H    -6.810000000    -1.309000000    -5.403000000
O     1.131000000     5.285000000    -0.878000000
H     1.666000000     4.721000000    -1.436000000
H     0.242000000     5.183000000    -1.216000000
O     3.607000000     2.268000000    -0.022000000
H     3.653000000     2.838000000     0.745000000
H     2.875000000     1.679000000     0.160000000
O     3.749000000    -0.583000000     2.870000000
H     3.437000000     0.295000000     3.087000000
H     3.279000000    -1.160000000     3.472000000
O     0.395000000     5.614000000     2.028000000
H     0.597000000     5.607000000     1.093000000
H     0.230000000     6.535000000     2.231000000
O     2.258000000    -3.431000000     2.663000000
H     2.626000000    -4.231000000     3.038000000
H     1.476000000    -3.259000000     3.187000000
O     2.595000000     1.595000000     4.184000000
H     2.214000000     1.275000000     5.002000000
H     1.997000000     2.284000000     3.894000000
O    -1.760000000    -3.671000000     3.200000000
H    -1.274000000    -3.943000000     2.421000000
H    -1.426000000    -4.232000000     3.899000000
O    -6.221000000    -4.693000000    -1.987000000
H    -6.622000000    -3.850000000    -1.776000000
H    -6.182000000    -4.707000000    -2.943000000
O    -5.034000000     4.316000000    -2.593000000
H    -4.598000000     3.578000000    -2.166000000
H    -5.403000000     3.944000000    -3.395000000
O    -7.722000000     1.559000000    -2.092000000
H    -6.888000000     1.143000000    -1.872000000
H    -8.073000000     1.850000000    -1.251000000
O    -1.056000000     4.730000000    -2.288000000
H    -1.922000000     4.441000000    -1.999000000
H    -0.766000000     4.048000000    -2.894000000
O     6.477000000    -0.038000000     3.791000000
H     6.330000000     0.250000000     4.692000000
H     5.599000000    -0.195000000     3.443000000
O    -7.593000000    -2.858000000    -0.494000000
H    -8.319000000    -3.170000000     0.047000000
H    -7.056000000    -2.338000000     0.104000000
O    -4.684000000     0.851000000    -4.649000000
H    -4.198000000     0.775000000    -3.828000000
H    -5.345000000     0.160000000    -4.601000000
O     4.235000000     4.142000000     2.058000000
H     5.005000000     3.788000000     2.504000000
H     4.583000000     4.538000000     1.259000000
O    -6.048000000     3.335000000    -4.752000000
H    -5.496000000     2.557000000    -4.834000000
H    -6.702000000     3.239000000    -5.445000000
O    -1.276000000     2.616000000     5.161000000
H    -2.109000000     2.532000000     5.625000000
H    -0.878000000     3.406000000     5.526000000
O    -4.121000000    -0.233000000     3.181000000
H    -4.221000000    -1.179000000     3.079000000
H    -3.414000000    -0.001000000     2.578000000
O    -3.208000000     5.106000000     1.587000000
H    -3.395000000     4.169000000     1.641000000
H    -2.728000000     5.302000000     2.391000000
O     0.948000000     0.001000000     6.218000000
H     0.551000000    -0.729000000     5.743000000
H     0.232000000     0.624000000     6.342000000
O     1.902000000     1.352000000    -4.010000000
H     2.708000000     1.014000000    -4.399000000
H     1.504000000     1.880000000    -4.702000000
