158
-3066.87481
C    -0.961000000     0.693000000     0.962000000
H    -1.670000000     1.299000000     1.520000000
C    -0.386000000     1.246000000    -0.182000000
H    -0.746000000     2.250000000    -0.391000000
C     0.537000000     0.561000000    -0.959000000
H     0.962000000     1.046000000    -1.833000000
C     0.895000000    -0.790000000    -0.638000000
H     1.694000000    -1.306000000    -1.165000000
C     0.217000000    -1.365000000     0.478000000
H     0.328000000    -2.434000000     0.641000000
C    -0.716000000    -0.681000000     1.288000000
C    -1.458000000    -1.331000000     2.399000000
O    -1.413000000    -2.561000000     2.480000000
O    -1.820000000    -0.632000000     3.335000000
O    -4.954000000    -4.160000000     2.876000000
H    -4.225000000    -4.154000000     2.256000000
H    -4.754000000    -3.451000000     3.487000000
O     3.891000000    -0.542000000    -2.504000000
H     3.932000000     0.145000000    -3.168000000
H     2.971000000    -0.569000000    -2.243000000
O     0.468000000     0.688000000     4.722000000
H     0.610000000     0.542000000     5.657000000
H    -0.056000000    -0.061000000     4.439000000
O     0.914000000     4.568000000    -1.547000000
H     0.815000000     4.177000000    -2.415000000
H     0.112000000     5.075000000    -1.420000000
O     1.271000000    -6.061000000     5.116000000
H     0.923000000    -5.522000000     4.406000000
H     0.979000000    -6.949000000     4.908000000
O    -3.006000000     4.231000000    -0.222000000
H    -3.424000000     3.881000000     0.565000000
H    -3.076000000     3.526000000    -0.865000000
O     1.564000000     6.864000000     0.152000000
H     0.856000000     6.566000000     0.724000000
H     1.718000000     6.130000000    -0.442000000
O     4.228000000    -0.888000000     1.711000000
H     3.475000000    -0.411000000     2.061000000
H     4.986000000    -0.374000000     1.988000000
O    -3.452000000     4.877000000     4.220000000
H    -2.800000000     4.277000000     4.583000000
H    -3.106000000     5.749000000     4.411000000
O    -4.531000000    -2.549000000     6.586000000
H    -4.279000000    -2.135000000     5.760000000
H    -3.728000000    -2.549000000     7.108000000
O     3.936000000    -2.778000000    -4.606000000
H     4.283000000    -2.087000000    -4.041000000
H     3.208000000    -2.364000000    -5.070000000
O    -4.363000000    -1.471000000     3.557000000
H    -3.450000000    -1.228000000     3.711000000
H    -4.485000000    -1.361000000     2.614000000
O    -2.412000000     0.161000000     5.715000000
H    -2.203000000    -0.247000000     4.875000000
H    -1.795000000    -0.231000000     6.333000000
O     4.483000000     3.349000000    -1.950000000
H     4.805000000     4.219000000    -1.713000000
H     4.073000000     3.470000000    -2.806000000
O     3.194000000    -3.688000000    -0.585000000
H     3.184000000    -4.511000000    -0.098000000
H     2.814000000    -3.048000000     0.017000000
O    -3.744000000     2.386000000    -2.402000000
H    -4.644000000     2.701000000    -2.478000000
H    -3.392000000     2.450000000    -3.290000000
O     2.589000000     3.044000000     0.507000000
H     1.803000000     3.336000000     0.044000000
H     3.290000000     3.119000000    -0.141000000
O     0.127000000    -0.470000000     7.406000000
H     0.360000000     0.305000000     7.918000000
H     0.138000000    -1.187000000     8.039000000
O    -0.355000000     1.780000000    -5.354000000
H    -0.367000000     0.853000000    -5.117000000
H     0.488000000     1.904000000    -5.791000000
O     6.790000000     2.555000000    -0.399000000
H     5.926000000     2.662000000    -0.797000000
H     6.614000000     2.156000000     0.453000000
O     2.494000000     1.110000000     2.548000000
H     1.580000000     0.828000000     2.517000000
H     2.631000000     1.569000000     1.720000000
O    -1.837000000    -5.756000000    -1.286000000
H    -1.766000000    -5.427000000    -0.390000000
H    -1.194000000    -6.464000000    -1.333000000
O    -3.162000000    -0.080000000    -1.141000000
H    -2.387000000     0.091000000    -0.605000000
H    -3.363000000     0.763000000    -1.547000000
O    -1.532000000     6.000000000    -1.403000000
H    -1.680000000     6.877000000    -1.049000000
H    -2.120000000     5.436000000    -0.901000000
O     0.286000000     4.762000000     4.032000000
H    -0.274000000     4.202000000     4.570000000
H     1.108000000     4.277000000     3.956000000
O     1.770000000    -2.102000000    -6.145000000
H     1.855000000    -1.842000000    -7.063000000
H     0.965000000    -1.676000000    -5.850000000
O    -3.122000000    -1.919000000    -3.492000000
H    -3.164000000    -1.391000000    -2.694000000
H    -3.252000000    -2.819000000    -3.191000000
O    -4.095000000     1.569000000     4.374000000
H    -4.999000000     1.615000000     4.684000000
H    -3.679000000     0.921000000     4.943000000
O    -0.616000000    -0.996000000    -5.021000000
H    -1.356000000    -1.284000000    -5.556000000
H    -0.927000000    -1.075000000    -4.119000000
O    -4.369000000    -1.747000000     0.760000000
H    -4.717000000    -2.401000000     0.154000000
H    -4.000000000    -1.069000000     0.194000000
O    -1.989000000    -3.623000000     4.816000000
H    -2.049000000    -3.442000000     3.878000000
H    -2.069000000    -4.574000000     4.882000000
O    -2.138000000    -6.316000000     3.741000000
H    -2.566000000    -7.050000000     4.183000000
H    -1.207000000    -6.537000000     3.757000000
O     2.440000000    -2.016000000     3.748000000
H     2.804000000    -1.902000000     4.627000000
H     2.442000000    -1.135000000     3.373000000
O    -2.863000000     2.433000000    -5.126000000
H    -3.361000000     2.559000000    -5.933000000
H    -1.954000000     2.356000000    -5.415000000
O    -2.528000000    -4.589000000     1.448000000
H    -1.976000000    -3.868000000     1.751000000
H    -2.549000000    -5.201000000     2.184000000
O    -1.734000000     2.711000000     4.407000000
H    -1.242000000     1.891000000     4.446000000
H    -2.647000000     2.438000000     4.313000000
O     2.220000000    -4.399000000    -3.042000000
H     2.752000000    -4.565000000    -2.264000000
H     2.770000000    -3.842000000    -3.593000000
O    -0.504000000    -4.594000000    -3.659000000
H     0.417000000    -4.511000000    -3.411000000
H    -0.977000000    -4.594000000    -2.826000000
O    -1.868000000    -3.164000000     7.487000000
H    -0.962000000    -3.127000000     7.794000000
H    -1.796000000    -3.204000000     6.534000000
O    -5.304000000     0.525000000     6.981000000
H    -4.460000000     0.132000000     6.759000000
H    -5.565000000     0.090000000     7.793000000
O    -4.351000000     3.529000000     2.077000000
H    -4.249000000     2.625000000     2.375000000
H    -3.990000000     4.058000000     2.789000000
O     0.603000000    -4.034000000     3.323000000
H    -0.181000000    -3.494000000     3.217000000
H     1.315000000    -3.404000000     3.428000000
O     6.738000000     0.570000000    -2.444000000
H     7.031000000     1.165000000    -1.754000000
H     5.950000000     0.159000000    -2.087000000
O    -0.835000000     6.408000000     1.886000000
H    -0.367000000     5.902000000     2.550000000
H    -1.397000000     5.768000000     1.449000000
O     3.343000000     4.380000000    -4.388000000
H     3.646000000     5.288000000    -4.387000000
H     2.388000000     4.446000000    -4.395000000
O     5.453000000    -2.654000000    -1.637000000
H     4.763000000    -3.076000000    -1.125000000
H     5.075000000    -1.815000000    -1.902000000
O     3.384000000     1.300000000    -4.562000000
H     4.006000000     1.270000000    -5.289000000
H     3.280000000     2.233000000    -4.374000000
O     0.474000000     4.347000000    -4.563000000
H     0.023000000     3.517000000    -4.720000000
H     0.202000000     4.908000000    -5.290000000
