158
-3010.13546
C    -1.427000000     0.238000000    -0.376000000
H    -2.384000000     0.640000000    -0.700000000
C    -0.632000000     1.157000000     0.271000000
H    -0.811000000     2.223000000     0.382000000
C     0.649000000     0.716000000     0.720000000
H     1.374000000     1.446000000     1.108000000
C     1.052000000    -0.600000000     0.500000000
H     2.020000000    -0.990000000     0.802000000
C     0.279000000    -1.419000000    -0.301000000
H     0.658000000    -2.425000000    -0.463000000
C    -0.962000000    -0.996000000    -0.737000000
C    -1.698000000    -1.863000000    -1.612000000
O    -2.619000000    -1.468000000    -2.268000000
O    -1.300000000    -2.982000000    -1.808000000
O    -4.960000000    -2.040000000    -1.063000000
H    -4.123000000    -1.814000000    -1.469000000
H    -5.560000000    -2.156000000    -1.800000000
O    -1.033000000    -6.706000000    -2.575000000
H    -0.631000000    -6.054000000    -2.000000000
H    -0.296000000    -7.105000000    -3.037000000
O     1.147000000     7.309000000     1.905000000
H     1.522000000     7.747000000     2.669000000
H     1.273000000     6.376000000     2.078000000
O    -2.171000000     3.077000000    -3.856000000
H    -2.412000000     2.153000000    -3.784000000
H    -1.392000000     3.165000000    -3.308000000
O    -4.407000000    -3.803000000    -5.285000000
H    -4.120000000    -2.890000000    -5.270000000
H    -4.025000000    -4.186000000    -4.495000000
O     4.294000000     2.366000000     0.971000000
H     4.929000000     2.721000000     0.350000000
H     4.381000000     2.921000000     1.746000000
O     4.546000000    -0.504000000     1.445000000
H     4.026000000    -0.413000000     2.244000000
H     4.721000000     0.395000000     1.168000000
O     4.391000000    -3.070000000     1.220000000
H     5.145000000    -3.516000000     1.605000000
H     4.554000000    -2.140000000     1.381000000
O     4.019000000    -2.775000000    -1.645000000
H     4.585000000    -2.029000000    -1.845000000
H     4.077000000    -2.871000000    -0.694000000
O    -6.418000000    -1.991000000    -3.569000000
H    -5.989000000    -1.526000000    -4.288000000
H    -7.127000000    -1.408000000    -3.296000000
O     0.712000000    -4.651000000    -1.835000000
H     1.174000000    -4.524000000    -2.664000000
H    -0.118000000    -4.188000000    -1.950000000
O    -6.116000000     3.993000000    -0.884000000
H    -5.464000000     4.525000000    -1.340000000
H    -5.792000000     3.096000000    -0.964000000
O     2.511000000    -3.836000000    -3.771000000
H     3.104000000    -3.597000000    -3.059000000
H     2.655000000    -3.165000000    -4.438000000
O    -5.638000000     1.357000000    -1.002000000
H    -4.806000000     1.298000000    -1.471000000
H    -6.256000000     0.871000000    -1.548000000
O    -2.851000000    -1.609000000    -4.905000000
H    -2.786000000    -1.648000000    -3.951000000
H    -2.272000000    -0.890000000    -5.155000000
O    -4.293000000     2.609000000     2.997000000
H    -3.463000000     3.007000000     3.259000000
H    -4.040000000     1.825000000     2.510000000
O    -4.559000000    -1.166000000     3.380000000
H    -4.255000000    -2.072000000     3.320000000
H    -4.621000000    -0.874000000     2.470000000
O    -0.208000000     3.853000000    -1.881000000
H     0.545000000     3.885000000    -1.291000000
H    -0.841000000     4.458000000    -1.495000000
O     3.195000000    -0.253000000     3.848000000
H     2.934000000     0.642000000     4.069000000
H     3.529000000    -0.614000000     4.669000000
O    -1.313000000    -3.919000000     3.105000000
H    -0.547000000    -3.370000000     3.272000000
H    -1.530000000    -4.294000000     3.958000000
O    -5.341000000    -0.366000000     0.926000000
H    -5.562000000     0.362000000     0.346000000
H    -5.198000000    -1.107000000     0.338000000
O     1.073000000    -2.598000000     3.442000000
H     1.418000000    -1.714000000     3.566000000
H     1.484000000    -2.905000000     2.634000000
O     4.664000000     4.089000000     3.083000000
H     5.379000000     4.604000000     2.710000000
H     4.155000000     4.720000000     3.593000000
O     2.222000000     3.228000000    -0.743000000
H     3.116000000     3.534000000    -0.894000000
H     2.263000000     2.771000000     0.096000000
O     3.623000000     6.199000000     0.555000000
H     4.299000000     6.474000000     1.174000000
H     3.138000000     7.000000000     0.358000000
O    -0.583000000    -0.023000000     3.358000000
H    -0.411000000     0.914000000     3.267000000
H    -0.666000000    -0.340000000     2.458000000
O    -3.188000000    -4.715000000    -2.655000000
H    -2.549000000    -4.080000000    -2.330000000
H    -2.713000000    -5.545000000    -2.673000000
O    -5.558000000    -5.427000000    -1.786000000
H    -6.026000000    -5.429000000    -2.621000000
H    -4.730000000    -4.985000000    -1.976000000
O    -0.132000000    -1.946000000    -4.426000000
H    -0.785000000    -2.631000000    -4.572000000
H     0.309000000    -2.205000000    -3.617000000
O    -4.014000000     0.688000000    -3.302000000
H    -4.386000000     0.455000000    -4.153000000
H    -3.518000000    -0.086000000    -3.037000000
O    -1.471000000     6.191000000    -1.364000000
H    -1.102000000     6.964000000    -1.790000000
H    -1.563000000     6.445000000    -0.445000000
O    -1.583000000    -0.588000000     5.905000000
H    -0.978000000    -0.021000000     6.383000000
H    -1.357000000    -0.456000000     4.984000000
O     2.391000000     2.298000000     4.512000000
H     3.194000000     2.800000000     4.367000000
H     1.689000000     2.884000000     4.228000000
O    -2.124000000     4.225000000     2.183000000
H    -1.907000000     5.156000000     2.131000000
H    -2.822000000     4.106000000     1.539000000
O     4.048000000    -0.647000000    -4.047000000
H     4.499000000    -0.015000000    -4.606000000
H     3.827000000    -0.154000000    -3.257000000
O     0.598000000     1.140000000     6.479000000
H     1.130000000     0.645000000     7.102000000
H     1.201000000     1.352000000     5.766000000
O     4.822000000     4.324000000    -0.892000000
H     5.410000000     4.929000000    -1.343000000
H     4.290000000     4.883000000    -0.327000000
O    -1.591000000    -4.175000000    -5.918000000
H    -1.849000000    -5.023000000    -6.278000000
H    -2.418000000    -3.723000000    -5.751000000
O     1.327000000     0.611000000    -4.562000000
H     2.141000000     0.817000000    -5.022000000
H     1.425000000    -0.305000000    -4.303000000
O     2.042000000    -4.786000000     0.999000000
H     2.721000000    -4.113000000     1.048000000
H     1.583000000    -4.604000000     0.178000000
O    -3.994000000    -3.628000000     2.316000000
H    -4.250000000    -4.427000000     1.854000000
H    -3.039000000    -3.611000000     2.254000000
O     0.456000000     3.997000000     3.289000000
H     0.288000000     4.661000000     3.958000000
H    -0.366000000     3.936000000     2.801000000
O    -4.934000000    -5.852000000     0.908000000
H    -4.035000000    -5.574000000     0.732000000
H    -5.382000000    -5.761000000     0.067000000
O    -2.381000000    -4.760000000     0.297000000
H    -1.630000000    -4.990000000     0.844000000
H    -2.125000000    -3.944000000    -0.131000000
O     6.353000000     2.192000000    -0.997000000
H     5.763000000     2.915000000    -1.212000000
H     7.213000000     2.603000000    -0.907000000
O     1.006000000     3.240000000    -4.204000000
H     0.599000000     3.362000000    -3.346000000
H     1.130000000     2.293000000    -4.278000000
O    -0.156000000    -6.413000000     1.478000000
H     0.677000000    -5.953000000     1.372000000
H    -0.465000000    -6.152000000     2.345000000
O     3.715000000     1.248000000    -1.863000000
H     2.913000000     1.564000000    -1.447000000
H     4.421000000     1.641000000    -1.350000000
