158
-3042.66866
C    -1.203000000    -0.799000000     0.418000000
H    -2.124000000    -1.266000000     0.757000000
C    -0.647000000     0.191000000     1.159000000
H    -1.109000000     0.397000000     2.121000000
C     0.512000000     0.852000000     0.763000000
H     0.945000000     1.629000000     1.357000000
C     1.110000000     0.417000000    -0.478000000
H     2.005000000     0.930000000    -0.820000000
C     0.562000000    -0.568000000    -1.250000000
H     1.130000000    -0.815000000    -2.143000000
C    -0.658000000    -1.161000000    -0.870000000
C    -1.265000000    -2.205000000    -1.794000000
O    -2.392000000    -2.528000000    -1.569000000
O    -0.616000000    -2.599000000    -2.739000000
O    -3.509000000    -3.371000000     0.711000000
H    -2.953000000    -3.003000000     0.025000000
H    -3.179000000    -4.261000000     0.835000000
O    -0.654000000    -8.021000000    -3.326000000
H    -1.556000000    -8.015000000    -3.647000000
H    -0.332000000    -7.137000000    -3.502000000
O     3.132000000     5.030000000     2.840000000
H     3.003000000     5.690000000     2.159000000
H     2.373000000     4.451000000     2.760000000
O    -0.006000000     1.631000000     5.820000000
H    -0.367000000     1.621000000     4.934000000
H     0.125000000     0.708000000     6.036000000
O    -4.212000000     1.374000000    -2.643000000
H    -5.070000000     1.788000000    -2.547000000
H    -3.636000000     1.884000000    -2.074000000
O     5.271000000     0.461000000    -3.497000000
H     4.959000000    -0.247000000    -4.062000000
H     4.521000000     1.050000000    -3.416000000
O    -4.595000000    -3.710000000    -4.464000000
H    -4.877000000    -3.229000000    -5.242000000
H    -4.725000000    -3.095000000    -3.742000000
O     6.237000000     1.149000000     0.895000000
H     6.539000000     0.522000000     0.238000000
H     6.108000000     1.963000000     0.409000000
O     4.029000000    -0.249000000     2.346000000
H     3.608000000     0.445000000     2.853000000
H     4.546000000     0.215000000     1.688000000
O     1.780000000    -2.007000000     1.788000000
H     2.461000000    -1.505000000     2.235000000
H     1.324000000    -1.363000000     1.245000000
O    -6.044000000     1.429000000     2.454000000
H    -5.236000000     1.852000000     2.163000000
H    -6.238000000     0.788000000     1.770000000
O    -0.518000000    -5.317000000    -3.509000000
H     0.051000000    -4.685000000    -3.070000000
H    -1.346000000    -5.268000000    -3.030000000
O     3.094000000     2.024000000    -3.567000000
H     2.317000000     2.246000000    -4.080000000
H     3.098000000     2.660000000    -2.852000000
O     1.470000000    -4.192000000    -1.713000000
H     2.361000000    -4.081000000    -2.045000000
H     1.026000000    -3.375000000    -1.941000000
O    -4.587000000    -1.637000000    -2.857000000
H    -3.848000000    -1.981000000    -2.356000000
H    -4.364000000    -0.719000000    -3.015000000
O    -4.518000000    -1.032000000     1.872000000
H    -4.214000000    -1.752000000     1.320000000
H    -5.324000000    -0.732000000     1.453000000
O    -2.072000000     2.363000000    -1.528000000
H    -1.347000000     2.921000000    -1.246000000
H    -1.800000000     1.478000000    -1.286000000
O     2.786000000     1.658000000     3.741000000
H     2.062000000     1.944000000     3.184000000
H     2.548000000     1.960000000     4.617000000
O    -4.345000000     1.651000000     6.207000000
H    -5.224000000     1.303000000     6.057000000
H    -3.930000000     1.633000000     5.344000000
O    -2.296000000    -5.872000000     0.827000000
H    -2.273000000    -6.644000000     1.394000000
H    -1.403000000    -5.527000000     0.857000000
O    -6.481000000    -0.378000000     0.131000000
H    -7.101000000     0.332000000    -0.037000000
H    -6.900000000    -1.155000000    -0.240000000
O     0.538000000    -5.161000000     0.792000000
H     1.214000000    -5.686000000     1.220000000
H     1.012000000    -4.649000000     0.137000000
O     5.843000000     4.434000000    -0.023000000
H     6.010000000     4.539000000     0.913000000
H     6.426000000     5.066000000    -0.443000000
O     4.057000000     6.449000000     0.621000000
H     4.563000000     7.036000000     1.182000000
H     4.693000000     5.802000000     0.317000000
O     0.063000000     4.063000000    -1.360000000
H     0.970000000     4.137000000    -1.656000000
H     0.060000000     4.470000000    -0.494000000
O    -0.400000000     4.376000000     5.277000000
H    -1.189000000     3.952000000     5.614000000
H    -0.166000000     5.016000000     5.950000000
O     3.517000000     4.092000000    -1.670000000
H     4.102000000     4.091000000    -0.912000000
H     3.554000000     4.990000000    -2.000000000
O    -2.720000000    -3.142000000     3.378000000
H    -2.637000000    -4.005000000     3.785000000
H    -3.229000000    -3.301000000     2.583000000
O    -2.646000000    -5.117000000    -1.769000000
H    -2.517000000    -5.397000000    -0.863000000
H    -2.437000000    -4.183000000    -1.763000000
O    -5.263000000    -5.388000000    -2.306000000
H    -5.576000000    -4.851000000    -3.034000000
H    -4.381000000    -5.060000000    -2.129000000
O    -1.970000000    -3.013000000    -4.965000000
H    -2.726000000    -3.372000000    -4.500000000
H    -1.288000000    -2.944000000    -4.297000000
O    -2.568000000     0.550000000     4.149000000
H    -2.137000000    -0.276000000     4.368000000
H    -2.944000000     0.402000000     3.282000000
O     5.994000000     4.497000000     2.619000000
H     5.143000000     4.463000000     3.058000000
H     6.608000000     4.139000000     3.261000000
O     3.838000000    -3.179000000    -3.018000000
H     4.180000000    -4.072000000    -3.035000000
H     4.244000000    -2.752000000    -3.772000000
O    -0.295000000    -1.900000000     3.537000000
H     0.324000000    -2.237000000     2.889000000
H    -1.060000000    -2.469000000     3.456000000
O     0.790000000     3.693000000     2.655000000
H     0.043000000     4.100000000     2.216000000
H     0.583000000     3.755000000     3.587000000
O     0.598000000    -1.075000000     6.301000000
H     1.191000000    -1.714000000     6.695000000
H     0.322000000    -1.478000000     5.478000000
O     2.724000000    -4.221000000    -5.784000000
H     2.641000000    -3.759000000    -6.618000000
H     2.905000000    -3.531000000    -5.145000000
O     1.144000000    -1.348000000    -5.011000000
H     1.187000000    -0.577000000    -4.445000000
H     0.443000000    -1.881000000    -4.636000000
O    -6.320000000    -3.758000000     1.318000000
H    -6.176000000    -4.698000000     1.425000000
H    -5.522000000    -3.440000000     0.896000000
O     4.288000000    -1.441000000    -5.106000000
H     3.389000000    -1.635000000    -5.372000000
H     4.814000000    -1.635000000    -5.883000000
O     2.385000000     3.079000000     6.019000000
H     2.741000000     3.131000000     6.906000000
H     1.496000000     2.743000000     6.137000000
O     0.797000000     7.300000000    -0.189000000
H     0.943000000     7.690000000    -1.051000000
H     1.676000000     7.171000000     0.167000000
O     6.554000000    -0.425000000    -1.389000000
H     7.195000000    -0.909000000    -1.911000000
H     6.222000000     0.249000000    -1.982000000
O     1.044000000    -6.252000000    -5.693000000
H     0.670000000    -5.771000000    -4.955000000
H     1.885000000    -5.824000000    -5.857000000
O    -3.679000000     2.384000000     1.568000000
H    -2.740000000     2.253000000     1.437000000
H    -3.823000000     3.308000000     1.365000000
O    -1.165000000     4.812000000     1.390000000
H    -1.907000000     4.921000000     1.985000000
H    -1.496000000     5.099000000     0.539000000
O     4.666000000    -2.163000000    -0.793000000
H     5.423000000    -1.580000000    -0.846000000
H     4.258000000    -2.106000000    -1.657000000
