158
-3028.59026
C    -0.982000000     0.708000000    -0.819000000
H    -1.716000000     1.236000000    -1.422000000
C    -0.083000000     1.283000000     0.107000000
H    -0.180000000     2.322000000     0.412000000
C     0.855000000     0.515000000     0.794000000
H     1.485000000     0.871000000     1.554000000
C     0.864000000    -0.830000000     0.534000000
H     1.560000000    -1.443000000     1.100000000
C    -0.034000000    -1.502000000    -0.325000000
H    -0.028000000    -2.588000000    -0.371000000
C    -0.989000000    -0.697000000    -0.997000000
C    -2.103000000    -1.332000000    -1.890000000
O    -2.958000000    -0.663000000    -2.461000000
O    -2.191000000    -2.513000000    -2.072000000
O    -5.912000000    -2.266000000    -1.109000000
H    -5.458000000    -3.109000000    -1.112000000
H    -5.760000000    -1.909000000    -1.984000000
O     1.504000000    -4.683000000    -3.456000000
H     1.166000000    -4.976000000    -2.610000000
H     2.441000000    -4.557000000    -3.309000000
O     2.465000000     5.124000000     1.744000000
H     2.934000000     5.559000000     2.456000000
H     3.135000000     4.958000000     1.082000000
O     7.207000000     2.559000000     0.146000000
H     6.263000000     2.604000000    -0.007000000
H     7.589000000     3.072000000    -0.566000000
O     4.360000000     3.652000000    -2.956000000
H     4.786000000     4.313000000    -2.410000000
H     3.490000000     3.548000000    -2.570000000
O    -2.346000000    -4.761000000    -5.072000000
H    -1.581000000    -4.219000000    -4.876000000
H    -2.175000000    -5.588000000    -4.622000000
O     4.752000000    -1.253000000     1.463000000
H     3.980000000    -1.436000000     1.999000000
H     4.445000000    -1.348000000     0.561000000
O     3.827000000    -1.065000000    -0.949000000
H     3.361000000    -0.285000000    -1.249000000
H     4.065000000    -1.526000000    -1.753000000
O    -5.078000000    -1.308000000    -3.619000000
H    -4.315000000    -1.045000000    -3.106000000
H    -4.792000000    -1.234000000    -4.529000000
O    -2.253000000     3.646000000     0.324000000
H    -1.442000000     4.154000000     0.318000000
H    -2.628000000     3.784000000    -0.545000000
O     2.696000000     1.171000000    -1.697000000
H     2.307000000     1.306000000    -2.561000000
H     1.947000000     1.116000000    -1.104000000
O    -2.237000000     1.785000000     2.323000000
H    -1.954000000     2.311000000     1.575000000
H    -2.596000000     0.988000000     1.934000000
O    -3.750000000     0.125000000     0.405000000
H    -3.502000000    -0.163000000    -0.474000000
H    -4.625000000     0.498000000     0.297000000
O    -1.164000000    -0.277000000    -5.177000000
H    -0.903000000    -1.098000000    -4.760000000
H    -0.352000000     0.076000000    -5.541000000
O    -3.564000000     3.933000000    -2.096000000
H    -4.327000000     3.481000000    -2.457000000
H    -2.968000000     4.027000000    -2.839000000
O    -3.838000000    -1.598000000    -5.959000000
H    -2.942000000    -1.269000000    -5.886000000
H    -3.796000000    -2.251000000    -6.658000000
O     4.310000000     4.543000000    -0.039000000
H     4.500000000     3.632000000     0.187000000
H     5.045000000     5.038000000     0.324000000
O     2.615000000    -2.786000000     3.210000000
H     2.560000000    -2.534000000     4.131000000
H     2.758000000    -3.732000000     3.228000000
O    -6.305000000     1.151000000     0.178000000
H    -6.763000000     0.457000000     0.652000000
H    -6.449000000     1.937000000     0.704000000
O     0.671000000    -6.819000000    -1.178000000
H     0.664000000    -6.257000000    -0.403000000
H     0.278000000    -7.640000000    -0.881000000
O    -3.157000000    -2.673000000     1.302000000
H    -3.679000000    -1.877000000     1.206000000
H    -3.170000000    -3.075000000     0.434000000
O     1.752000000    -4.623000000     0.833000000
H     1.615000000    -3.814000000     1.325000000
H     2.511000000    -4.441000000     0.279000000
O     4.495000000     1.834000000     0.289000000
H     4.853000000     1.134000000     0.834000000
H     3.897000000     1.388000000    -0.311000000
O    -1.025000000    -2.780000000     2.872000000
H    -0.364000000    -2.217000000     2.471000000
H    -1.782000000    -2.715000000     2.289000000
O    -0.477000000    -2.934000000    -4.144000000
H    -1.144000000    -2.885000000    -3.459000000
H     0.299000000    -3.273000000    -3.699000000
O    -2.585000000     1.708000000    -3.643000000
H    -2.690000000     0.893000000    -3.152000000
H    -1.860000000     1.535000000    -4.243000000
O    -5.237000000    -3.853000000    -4.627000000
H    -5.000000000    -3.092000000    -4.097000000
H    -4.410000000    -4.313000000    -4.769000000
O     2.566000000    -1.773000000     5.659000000
H     2.410000000    -0.862000000     5.409000000
H     3.435000000    -1.766000000     6.059000000
O     5.991000000     0.732000000     4.016000000
H     6.334000000     1.580000000     4.299000000
H     6.741000000     0.292000000     3.616000000
O    -1.291000000     0.790000000     4.647000000
H    -0.371000000     1.038000000     4.553000000
H    -1.730000000     1.216000000     3.911000000
O     3.236000000     1.403000000     4.751000000
H     3.422000000     1.428000000     5.689000000
H     4.069000000     1.159000000     4.347000000
O    -1.680000000    -2.022000000     5.373000000
H    -1.650000000    -2.078000000     4.418000000
H    -1.777000000    -1.088000000     5.555000000
O    -0.293000000    -3.145000000    -6.876000000
H     0.222000000    -3.950000000    -6.833000000
H    -0.290000000    -2.811000000    -5.979000000
O     4.286000000    -4.498000000    -0.229000000
H     5.066000000    -3.969000000    -0.066000000
H     4.624000000    -5.373000000    -0.418000000
O    -7.780000000     0.361000000    -2.105000000
H    -7.293000000     0.916000000    -1.497000000
H    -7.108000000    -0.156000000    -2.549000000
O     1.966000000     4.026000000    -1.590000000
H     1.132000000     4.207000000    -1.156000000
H     2.622000000     4.451000000    -1.037000000
O     6.895000000    -1.691000000     2.907000000
H     7.511000000    -1.233000000     2.336000000
H     6.035000000    -1.363000000     2.645000000
O    -5.289000000     1.482000000    -4.817000000
H    -5.468000000     2.246000000    -4.268000000
H    -4.561000000     1.039000000    -4.381000000
O     0.117000000    -5.329000000     4.330000000
H    -0.137000000    -4.648000000     3.708000000
H    -0.158000000    -4.990000000     5.182000000
O     0.205000000     5.135000000     4.435000000
H     0.683000000     5.938000000     4.641000000
H     0.728000000     4.714000000     3.752000000
O    -4.031000000    -4.066000000    -1.018000000
H    -3.629000000    -4.899000000    -0.772000000
H    -3.331000000    -3.584000000    -1.459000000
O     5.280000000    -1.348000000     5.457000000
H     5.401000000    -0.401000000     5.386000000
H     5.719000000    -1.704000000     4.685000000
O     2.981000000    -7.113000000     0.864000000
H     2.434000000    -7.611000000     1.472000000
H     2.635000000    -6.222000000     0.906000000
O    -3.401000000     1.645000000    -7.071000000
H    -2.648000000     2.194000000    -6.850000000
H    -3.525000000     1.088000000    -6.303000000
O    -0.291000000     5.485000000     0.739000000
H    -0.286000000     6.413000000     0.505000000
H     0.549000000     5.343000000     1.174000000
O    -3.423000000     4.721000000     2.657000000
H    -3.088000000     3.924000000     3.068000000
H    -3.158000000     4.647000000     1.740000000
O    -3.026000000     6.577000000    -1.751000000
H    -2.885000000     5.656000000    -1.972000000
H    -3.839000000     6.809000000    -2.199000000
O     0.692000000     2.292000000    -3.476000000
H    -0.198000000     2.159000000    -3.151000000
H     0.930000000     3.167000000    -3.170000000
