158
-3005.80305
C    -1.338000000     0.519000000     0.145000000
H    -2.350000000     0.827000000     0.396000000
C    -0.526000000     0.103000000     1.219000000
H    -0.919000000     0.326000000     2.208000000
C     0.722000000    -0.317000000     0.936000000
H     1.429000000    -0.740000000     1.686000000
C     1.177000000    -0.318000000    -0.397000000
H     2.227000000    -0.588000000    -0.475000000
C     0.343000000     0.052000000    -1.475000000
H     0.734000000     0.084000000    -2.488000000
C    -0.961000000     0.364000000    -1.207000000
C    -1.891000000     0.864000000    -2.301000000
O    -3.041000000     1.235000000    -2.064000000
O    -1.668000000     0.650000000    -3.473000000
O     2.744000000    -3.345000000    -0.165000000
H     1.862000000    -3.616000000     0.090000000
H     2.636000000    -2.967000000    -1.038000000
O     3.120000000    -1.291000000    -5.393000000
H     3.508000000    -1.587000000    -4.570000000
H     3.808000000    -0.772000000    -5.810000000
O    -3.535000000     0.281000000     4.316000000
H    -2.779000000     0.692000000     4.736000000
H    -3.264000000     0.152000000     3.407000000
O     4.665000000    -1.673000000     1.506000000
H     4.047000000    -2.111000000     0.921000000
H     5.054000000    -2.383000000     2.018000000
O    -4.307000000    -1.249000000    -2.294000000
H    -5.174000000    -0.903000000    -2.508000000
H    -3.776000000    -0.473000000    -2.119000000
O     1.373000000     2.026000000     6.175000000
H     2.087000000     2.006000000     5.538000000
H     0.972000000     2.887000000     6.058000000
O    -0.407000000     3.343000000     2.592000000
H     0.038000000     3.866000000     3.259000000
H    -0.320000000     2.440000000     2.899000000
O    -5.181000000     4.366000000     0.949000000
H    -4.540000000     4.020000000     1.570000000
H    -5.935000000     3.782000000     1.032000000
O     3.653000000    -2.197000000     4.545000000
H     2.731000000    -2.013000000     4.366000000
H     3.809000000    -3.053000000     4.147000000
O    -5.025000000     3.120000000    -4.538000000
H    -4.469000000     3.188000000    -3.761000000
H    -4.548000000     3.599000000    -5.216000000
O     4.431000000    -5.303000000    -0.800000000
H     3.963000000    -4.528000000    -0.488000000
H     4.360000000    -5.257000000    -1.753000000
O    -2.627000000     3.865000000    -3.193000000
H    -2.856000000     3.097000000    -2.669000000
H    -2.228000000     3.504000000    -3.985000000
O    -0.766000000    -2.145000000    -3.496000000
H    -1.255000000    -2.160000000    -4.319000000
H    -0.853000000    -1.245000000    -3.182000000
O    -5.455000000     0.640000000    -7.071000000
H    -6.208000000     0.563000000    -6.486000000
H    -4.701000000     0.428000000    -6.520000000
O    -1.120000000     1.408000000     5.085000000
H    -0.378000000     1.555000000     5.671000000
H    -1.755000000     2.082000000     5.327000000
O    -3.467000000    -0.661000000    -5.024000000
H    -2.903000000    -0.125000000    -4.466000000
H    -4.280000000    -0.750000000    -4.527000000
O     2.823000000     3.635000000     1.588000000
H     2.445000000     4.462000000     1.290000000
H     2.976000000     3.138000000     0.784000000
O    -5.793000000     0.527000000    -3.876000000
H    -5.187000000     1.267000000    -3.903000000
H    -6.661000000     0.926000000    -3.929000000
O    -5.126000000     0.618000000    -0.060000000
H    -4.580000000     0.130000000     0.557000000
H    -4.510000000     0.956000000    -0.709000000
O    -0.380000000    -5.652000000     1.770000000
H    -0.263000000    -5.521000000     2.711000000
H    -0.247000000    -4.784000000     1.389000000
O    -2.474000000    -1.087000000    -7.445000000
H    -2.535000000    -0.232000000    -7.870000000
H    -2.771000000    -0.931000000    -6.548000000
O    -7.472000000     2.683000000     0.071000000
H    -7.074000000     2.186000000    -0.644000000
H    -8.011000000     3.341000000    -0.366000000
O    -3.167000000     3.863000000     2.639000000
H    -2.294000000     3.492000000     2.770000000
H    -3.604000000     3.752000000     3.484000000
O     6.512000000    -0.864000000     4.926000000
H     5.611000000    -1.180000000     4.859000000
H     6.723000000    -0.938000000     5.857000000
O    -0.186000000    -3.095000000     0.719000000
H     0.229000000    -2.280000000     0.437000000
H    -1.098000000    -2.855000000     0.885000000
O     5.109000000    -1.720000000    -3.495000000
H     4.866000000    -2.066000000    -2.636000000
H     5.798000000    -1.082000000    -3.309000000
O     5.100000000     2.979000000     4.007000000
H     4.830000000     2.523000000     3.211000000
H     4.668000000     2.502000000     4.715000000
O     0.567000000     3.282000000    -0.900000000
H     0.072000000     2.534000000    -0.564000000
H     0.792000000     3.790000000    -0.120000000
O     0.900000000     4.367000000    -3.612000000
H     0.887000000     3.565000000    -4.134000000
H     0.710000000     4.076000000    -2.720000000
O    -7.364000000    -0.928000000    -1.324000000
H    -6.806000000    -0.547000000    -0.646000000
H    -7.462000000    -0.230000000    -1.972000000
O    -1.062000000    -3.126000000    -6.256000000
H    -0.213000000    -3.256000000    -6.678000000
H    -1.515000000    -2.497000000    -6.817000000
O     0.256000000    -4.219000000     6.187000000
H    -0.578000000    -3.809000000     6.414000000
H     0.504000000    -4.709000000     6.972000000
O     4.508000000    -4.369000000     3.032000000
H     5.449000000    -4.256000000     2.895000000
H     4.426000000    -5.240000000     3.421000000
O     2.691000000    -2.333000000     7.040000000
H     2.699000000    -3.290000000     7.065000000
H     3.069000000    -2.112000000     6.189000000
O     1.930000000    -2.417000000    -2.767000000
H     1.767000000    -3.346000000    -2.930000000
H     1.187000000    -1.969000000    -3.169000000
O    -3.333000000    -2.883000000    -0.389000000
H    -3.976000000    -2.396000000    -0.905000000
H    -3.322000000    -3.755000000    -0.783000000
O    -2.783000000     1.724000000    -7.945000000
H    -3.671000000     2.057000000    -7.817000000
H    -2.425000000     1.648000000    -7.061000000
O     5.005000000     0.905000000     1.935000000
H     5.675000000     0.885000000     2.619000000
H     4.921000000    -0.007000000     1.656000000
O     3.535000000    -6.381000000     1.406000000
H     4.285000000    -6.165000000     0.852000000
H     3.448000000    -5.631000000     1.994000000
O     0.818000000    -5.636000000     4.011000000
H     0.802000000    -4.929000000     4.656000000
H     0.814000000    -6.437000000     4.535000000
O     1.758000000     2.279000000    -5.212000000
H     2.416000000     2.925000000    -5.468000000
H     2.204000000     1.722000000    -4.574000000
O     3.224000000     1.097000000     4.388000000
H     2.817000000     0.267000000     4.637000000
H     3.414000000     0.999000000     3.455000000
O     1.117000000    -1.867000000     4.017000000
H     0.590000000    -2.300000000     4.689000000
H     0.662000000    -2.059000000     3.197000000
O    -1.006000000     1.354000000    -5.902000000
H    -0.119000000     1.683000000    -5.759000000
H    -1.255000000     0.967000000    -5.062000000
O     5.351000000     2.651000000    -0.310000000
H     5.948000000     1.977000000    -0.634000000
H     5.348000000     2.532000000     0.640000000
O     0.585000000     0.008000000    -7.987000000
H     1.028000000    -0.833000000    -7.874000000
H    -0.220000000    -0.075000000    -7.476000000
O    -3.776000000    -1.367000000     1.618000000
H    -3.565000000    -2.030000000     0.961000000
H    -4.678000000    -1.561000000     1.873000000
O    -2.210000000    -3.255000000     3.136000000
H    -2.318000000    -3.425000000     4.072000000
H    -3.023000000    -2.824000000     2.874000000
