158
-3052.20881
C    -1.453000000     0.173000000     0.287000000
H    -2.477000000     0.495000000     0.460000000
C    -0.448000000     1.048000000     0.707000000
H    -0.735000000     1.990000000     1.168000000
C     0.858000000     0.737000000     0.478000000
H     1.606000000     1.486000000     0.763000000
C     1.179000000    -0.465000000    -0.233000000
H     2.219000000    -0.637000000    -0.500000000
C     0.176000000    -1.327000000    -0.628000000
H     0.482000000    -2.126000000    -1.299000000
C    -1.165000000    -1.034000000    -0.366000000
C    -2.201000000    -1.947000000    -0.966000000
O    -3.330000000    -1.628000000    -0.888000000
O    -1.893000000    -2.846000000    -1.676000000
O     3.679000000     5.330000000     5.304000000
H     4.301000000     4.602000000     5.283000000
H     3.419000000     5.449000000     4.390000000
O    -2.333000000     2.275000000     3.233000000
H    -2.501000000     1.516000000     3.791000000
H    -1.387000000     2.407000000     3.286000000
O     4.856000000     4.246000000     0.906000000
H     3.993000000     4.424000000     1.278000000
H     5.312000000     5.087000000     0.944000000
O     1.652000000    -2.845000000    -4.497000000
H     0.954000000    -2.199000000    -4.605000000
H     1.194000000    -3.658000000    -4.285000000
O    -7.457000000    -4.507000000    -2.560000000
H    -6.731000000    -4.318000000    -1.966000000
H    -7.132000000    -5.212000000    -3.120000000
O     2.318000000     0.510000000     3.232000000
H     1.731000000    -0.245000000     3.201000000
H     3.046000000     0.271000000     2.659000000
O     5.151000000     3.084000000     4.781000000
H     4.837000000     2.215000000     5.031000000
H     5.951000000     2.915000000     4.282000000
O     0.538000000     2.852000000     3.375000000
H     1.152000000     2.120000000     3.429000000
H     0.735000000     3.269000000     2.536000000
O    -1.569000000    -1.793000000     3.158000000
H    -0.875000000    -1.646000000     2.516000000
H    -2.342000000    -1.999000000     2.631000000
O     2.516000000     5.829000000     2.762000000
H     2.079000000     5.761000000     1.913000000
H     1.965000000     6.427000000     3.268000000
O     3.599000000    -4.023000000     0.477000000
H     3.361000000    -4.487000000     1.280000000
H     4.531000000    -3.829000000     0.580000000
O     4.629000000    -2.266000000    -1.745000000
H     4.333000000    -2.331000000    -2.653000000
H     4.157000000    -2.962000000    -1.288000000
O    -0.220000000    -4.366000000    -3.198000000
H    -0.852000000    -5.070000000    -3.345000000
H    -0.684000000    -3.740000000    -2.642000000
O    -5.331000000     0.200000000    -5.439000000
H    -5.055000000     0.084000000    -4.530000000
H    -5.330000000    -0.685000000    -5.804000000
O    -5.849000000    -2.434000000    -1.480000000
H    -4.938000000    -2.186000000    -1.320000000
H    -6.072000000    -2.005000000    -2.306000000
O    -4.155000000     0.451000000    -2.526000000
H    -3.695000000     1.246000000    -2.260000000
H    -4.027000000    -0.156000000    -1.797000000
O    -4.404000000    -1.532000000     1.654000000
H    -4.764000000    -0.676000000     1.887000000
H    -4.119000000    -1.432000000     0.746000000
O     4.341000000    -2.436000000    -4.743000000
H     4.116000000    -1.541000000    -4.490000000
H     3.554000000    -2.945000000    -4.549000000
O     0.845000000     4.913000000     0.594000000
H     1.292000000     4.344000000    -0.033000000
H    -0.073000000     4.894000000     0.322000000
O    -5.171000000    -6.086000000     0.818000000
H    -5.252000000    -5.861000000     1.745000000
H    -4.958000000    -5.258000000     0.388000000
O    -6.986000000    -0.430000000    -2.775000000
H    -7.504000000     0.156000000    -2.223000000
H    -6.217000000     0.087000000    -3.017000000
O    -3.665000000    -4.999000000    -1.796000000
H    -3.442000000    -5.582000000    -1.070000000
H    -3.168000000    -4.199000000    -1.622000000
O     5.086000000     0.069000000    -0.634000000
H     4.878000000    -0.698000000    -1.167000000
H     5.178000000     0.782000000    -1.265000000
O     2.068000000     3.557000000    -1.869000000
H     2.977000000     3.336000000    -1.665000000
H     2.123000000     4.387000000    -2.341000000
O     4.973000000     2.425000000    -1.992000000
H     5.099000000     3.127000000    -2.631000000
H     5.554000000     2.654000000    -1.267000000
O    -2.700000000     0.054000000     4.871000000
H    -1.970000000    -0.552000000     4.740000000
H    -3.477000000    -0.505000000     4.876000000
O    -5.169000000    -6.487000000    -3.557000000
H    -4.589000000    -5.990000000    -2.978000000
H    -4.955000000    -7.403000000    -3.380000000
O    -2.962000000    -2.429000000    -4.046000000
H    -2.960000000    -1.477000000    -4.149000000
H    -2.737000000    -2.571000000    -3.127000000
O    -1.930000000    -2.883000000    -6.956000000
H    -2.297000000    -3.002000000    -6.081000000
H    -1.488000000    -3.710000000    -7.146000000
O    -4.343000000    -3.264000000     4.075000000
H    -4.472000000    -2.779000000     4.890000000
H    -4.580000000    -2.643000000     3.386000000
O     0.907000000    -2.443000000     2.190000000
H     0.921000000    -3.297000000     2.623000000
H     1.302000000    -2.603000000     1.333000000
O     5.177000000     1.354000000     2.258000000
H     4.860000000     2.257000000     2.233000000
H     5.205000000     1.084000000     1.340000000
O    -3.393000000     3.609000000     1.171000000
H    -4.060000000     4.247000000     1.428000000
H    -3.217000000     3.113000000     1.970000000
O     6.657000000    -1.546000000     2.330000000
H     6.257000000    -0.717000000     2.066000000
H     6.771000000    -2.029000000     1.512000000
O    -4.587000000    -4.322000000    -5.192000000
H    -5.081000000    -4.952000000    -4.667000000
H    -4.008000000    -3.889000000    -4.565000000
O    -0.051000000    -1.212000000    -5.767000000
H     0.157000000    -0.346000000    -6.117000000
H    -0.520000000    -1.650000000    -6.477000000
O     2.150000000    -5.822000000    -2.490000000
H     2.880000000    -5.628000000    -3.078000000
H     1.382000000    -5.465000000    -2.936000000
O    -6.714000000    -3.184000000     0.880000000
H    -6.547000000    -2.970000000    -0.038000000
H    -5.874000000    -3.043000000     1.316000000
O     3.767000000     0.972000000     5.798000000
H     3.409000000     0.893000000     4.913000000
H     3.305000000     1.719000000     6.177000000
O     3.513000000     0.392000000    -3.285000000
H     3.111000000     0.825000000    -4.038000000
H     3.897000000     1.105000000    -2.775000000
O    -6.474000000     2.434000000     0.414000000
H    -5.982000000     3.053000000    -0.125000000
H    -7.254000000     2.918000000     0.685000000
O    -1.995000000    -5.201000000     0.888000000
H    -1.089000000    -5.196000000     0.579000000
H    -1.992000000    -4.618000000     1.647000000
O    -1.625000000     5.170000000    -0.171000000
H    -1.799000000     6.046000000     0.173000000
H    -2.300000000     4.619000000     0.225000000
O    -2.253000000    -6.370000000    -4.775000000
H    -3.071000000    -5.890000000    -4.648000000
H    -2.384000000    -6.856000000    -5.589000000
O    -2.642000000     2.438000000    -1.389000000
H    -2.848000000     2.607000000    -0.470000000
H    -1.697000000     2.577000000    -1.452000000
O     0.231000000     1.735000000    -2.835000000
H     0.595000000     2.509000000    -2.406000000
H     0.698000000     1.000000000    -2.438000000
O    -5.331000000     0.981000000     2.332000000
H    -4.957000000     1.728000000     2.800000000
H    -5.664000000     1.353000000     1.515000000
O     0.610000000    -5.533000000     0.323000000
H     1.129000000    -5.373000000    -0.465000000
H     1.256000000    -5.736000000     0.998000000
