158
-3032.40465
C    -1.082000000    -0.412000000     0.946000000
H    -1.819000000    -0.715000000     1.686000000
C     0.206000000    -0.093000000     1.301000000
H     0.512000000    -0.034000000     2.342000000
C     1.123000000     0.176000000     0.337000000
H     2.067000000     0.509000000     0.681000000
C     0.802000000     0.234000000    -0.928000000
H     1.560000000     0.571000000    -1.630000000
C    -0.459000000    -0.191000000    -1.391000000
H    -0.651000000    -0.320000000    -2.453000000
C    -1.470000000    -0.410000000    -0.434000000
C    -2.826000000    -0.733000000    -0.895000000
O    -3.722000000    -1.061000000    -0.151000000
O    -3.095000000    -0.715000000    -2.081000000
O     5.954000000     3.834000000     2.696000000
H     6.008000000     4.503000000     3.378000000
H     6.278000000     3.037000000     3.116000000
O     5.919000000     3.032000000    -2.937000000
H     5.662000000     3.187000000    -2.028000000
H     6.867000000     2.902000000    -2.899000000
O     1.698000000    -4.982000000    -1.145000000
H     1.767000000    -5.485000000    -0.334000000
H     1.113000000    -4.256000000    -0.928000000
O     6.702000000     1.572000000     3.932000000
H     5.907000000     1.595000000     4.463000000
H     6.868000000     0.640000000     3.789000000
O     3.713000000    -0.418000000     2.669000000
H     4.587000000    -0.518000000     3.044000000
H     3.507000000    -1.280000000     2.308000000
O    -4.149000000    -4.060000000     0.527000000
H    -4.184000000    -3.438000000    -0.200000000
H    -3.220000000    -4.268000000     0.620000000
O     2.184000000     1.860000000     3.421000000
H     2.627000000     1.182000000     2.911000000
H     1.638000000     1.375000000     4.040000000
O     4.179000000    -3.811000000    -1.420000000
H     3.481000000    -4.459000000    -1.329000000
H     3.856000000    -3.202000000    -2.084000000
O    -4.942000000     3.393000000     0.180000000
H    -4.059000000     3.055000000     0.025000000
H    -5.518000000     2.652000000    -0.010000000
O     1.602000000     3.869000000    -1.524000000
H     0.903000000     4.394000000    -1.134000000
H     2.111000000     3.554000000    -0.777000000
O     4.684000000     1.629000000    -5.036000000
H     3.918000000     1.061000000    -4.957000000
H     4.941000000     1.812000000    -4.132000000
O    -2.361000000    -2.849000000    -3.925000000
H    -2.394000000    -3.562000000    -3.287000000
H    -2.923000000    -2.169000000    -3.553000000
O    -0.329000000     1.999000000     6.641000000
H    -0.078000000     1.235000000     6.122000000
H     0.501000000     2.353000000     6.962000000
O    -5.184000000    -2.619000000    -2.129000000
H    -5.880000000    -2.459000000    -1.492000000
H    -4.438000000    -2.117000000    -1.802000000
O    -5.495000000     0.800000000    -0.712000000
H    -4.969000000     0.003000000    -0.655000000
H    -5.863000000     0.782000000    -1.596000000
O    -4.248000000    -1.645000000     2.410000000
H    -4.887000000    -0.948000000     2.562000000
H    -3.998000000    -1.544000000     1.492000000
O     4.499000000     0.439000000     0.287000000
H     4.996000000    -0.373000000     0.187000000
H     4.057000000     0.346000000     1.131000000
O    -1.449000000    -4.851000000     0.408000000
H    -1.647000000    -5.157000000     1.293000000
H    -0.532000000    -4.582000000     0.447000000
O     0.869000000    -5.164000000     3.780000000
H     0.763000000    -5.594000000     4.628000000
H     1.055000000    -4.250000000     3.997000000
O     2.531000000    -0.003000000    -4.524000000
H     2.086000000     0.247000000    -5.334000000
H     2.129000000     0.546000000    -3.851000000
O    -5.549000000    -3.163000000    -4.818000000
H    -5.007000000    -3.885000000    -5.136000000
H    -5.290000000    -3.053000000    -3.903000000
O    -6.084000000     0.488000000     2.252000000
H    -6.983000000     0.662000000     2.533000000
H    -6.120000000     0.532000000     1.297000000
O    -3.875000000     2.043000000     3.430000000
H    -4.572000000     1.634000000     2.916000000
H    -3.276000000     2.403000000     2.776000000
O     0.862000000    -2.872000000     0.687000000
H     0.527000000    -2.018000000     0.414000000
H     1.802000000    -2.735000000     0.804000000
O    -2.380000000     2.503000000     0.848000000
H    -1.819000000     3.278000000     0.823000000
H    -1.796000000     1.778000000     0.622000000
O    -6.775000000    -3.172000000     1.808000000
H    -6.966000000    -2.724000000     0.984000000
H    -6.033000000    -3.741000000     1.605000000
O    -3.881000000     0.796000000    -4.090000000
H    -3.667000000     0.144000000    -3.422000000
H    -3.096000000     1.339000000    -4.154000000
O     0.433000000    -2.528000000    -4.632000000
H    -0.328000000    -2.656000000    -4.066000000
H     0.085000000    -2.087000000    -5.406000000
O    -7.578000000    -1.930000000    -0.719000000
H    -8.250000000    -1.328000000    -0.400000000
H    -7.854000000    -2.146000000    -1.610000000
O     6.557000000    -1.172000000     3.681000000
H     7.236000000    -1.589000000     3.150000000
H     6.400000000    -1.789000000     4.396000000
O     0.725000000    -0.222000000     4.885000000
H     0.254000000    -0.899000000     4.398000000
H     1.489000000    -0.673000000     5.244000000
O     3.038000000    -2.296000000    -3.144000000
H     3.440000000    -1.589000000    -3.650000000
H     2.096000000    -2.143000000    -3.227000000
O    -2.885000000    -3.520000000     3.962000000
H    -3.458000000    -3.016000000     3.385000000
H    -3.483000000    -3.994000000     4.540000000
O     7.930000000     1.921000000     0.815000000
H     7.123000000     2.302000000     0.471000000
H     7.680000000     1.556000000     1.664000000
O     4.274000000     2.126000000     5.221000000
H     4.381000000     3.070000000     5.101000000
H     3.714000000     1.854000000     4.495000000
O    -2.724000000    -5.294000000    -2.122000000
H    -2.256000000    -5.908000000    -2.688000000
H    -2.155000000    -5.190000000    -1.359000000
O    -5.262000000     3.224000000    -3.658000000
H    -4.718000000     2.437000000    -3.701000000
H    -4.636000000     3.948000000    -3.653000000
O    -0.854000000     4.750000000     0.175000000
H    -0.679000000     5.303000000     0.936000000
H    -1.088000000     5.365000000    -0.520000000
O     3.813000000    -2.712000000     1.212000000
H     4.038000000    -3.064000000     0.351000000
H     4.163000000    -3.352000000     1.831000000
O    -1.310000000     1.991000000    -5.037000000
H    -0.393000000     2.078000000    -4.775000000
H    -1.623000000     2.892000000    -5.117000000
O     5.441000000     3.474000000    -0.351000000
H     5.479000000     3.776000000     0.557000000
H     4.866000000     2.710000000    -0.325000000
O     1.788000000     4.446000000     4.131000000
H     1.858000000     5.110000000     3.445000000
H     1.687000000     3.621000000     3.657000000
O    -2.110000000    -3.288000000    -6.697000000
H    -2.489000000    -2.677000000    -7.330000000
H    -2.085000000    -2.796000000    -5.876000000
O    -5.508000000     0.910000000    -6.659000000
H    -5.420000000     0.319000000    -5.911000000
H    -6.426000000     0.833000000    -6.918000000
O    -1.354000000    -0.239000000    -6.366000000
H    -2.305000000    -0.315000000    -6.447000000
H    -1.222000000     0.528000000    -5.809000000
O     1.149000000     2.195000000    -4.023000000
H     1.619000000     2.737000000    -4.657000000
H     1.095000000     2.738000000    -3.237000000
O    -2.460000000    -1.204000000     5.691000000
H    -2.387000000    -2.090000000     5.338000000
H    -1.555000000    -0.904000000     5.774000000
O    -0.108000000    -2.349000000     3.455000000
H     0.210000000    -2.529000000     2.570000000
H    -0.952000000    -2.798000000     3.502000000
