158
-3047.82232
C    -1.359000000    -0.347000000     0.468000000
H    -2.391000000    -0.428000000     0.800000000
C    -0.563000000     0.730000000     0.933000000
H    -0.895000000     1.494000000     1.631000000
C     0.761000000     0.860000000     0.459000000
H     1.444000000     1.565000000     0.966000000
C     1.188000000    -0.037000000    -0.484000000
H     2.238000000     0.088000000    -0.735000000
C     0.391000000    -0.966000000    -1.069000000
H     0.881000000    -1.667000000    -1.740000000
C    -0.957000000    -1.142000000    -0.624000000
C    -1.906000000    -2.120000000    -1.317000000
O    -3.035000000    -2.264000000    -0.893000000
O    -1.541000000    -2.652000000    -2.292000000
O     3.323000000     5.012000000     4.765000000
H     2.672000000     4.386000000     4.448000000
H     3.249000000     5.757000000     4.169000000
O     5.060000000    -4.572000000    -0.901000000
H     4.263000000    -4.054000000    -0.787000000
H     5.288000000    -4.460000000    -1.824000000
O    -2.028000000     1.215000000     4.508000000
H    -1.802000000     0.300000000     4.335000000
H    -1.184000000     1.653000000     4.616000000
O     3.129000000    -0.817000000    -3.282000000
H     3.104000000     0.139000000    -3.300000000
H     2.332000000    -1.087000000    -3.738000000
O    -4.630000000    -4.616000000    -4.594000000
H    -4.939000000    -4.486000000    -3.697000000
H    -3.743000000    -4.963000000    -4.493000000
O     3.358000000     0.889000000     5.359000000
H     3.683000000     1.386000000     4.608000000
H     2.667000000     0.334000000     4.998000000
O     0.742000000     2.501000000     4.311000000
H     0.891000000     1.556000000     4.296000000
H     1.068000000     2.808000000     3.465000000
O    -0.020000000    -2.034000000     2.549000000
H     0.822000000    -2.138000000     2.106000000
H    -0.520000000    -1.451000000     1.978000000
O     2.392000000    -2.857000000     1.220000000
H     2.667000000    -3.760000000     1.376000000
H     3.176000000    -2.422000000     0.886000000
O     4.366000000    -1.661000000    -0.463000000
H     5.037000000    -1.041000000    -0.749000000
H     3.731000000    -1.674000000    -1.179000000
O     2.823000000     1.566000000    -4.362000000
H     2.077000000     1.939000000    -4.832000000
H     3.215000000     2.311000000    -3.905000000
O     1.011000000    -4.415000000    -2.288000000
H     1.420000000    -3.646000000    -2.686000000
H     0.081000000    -4.196000000    -2.245000000
O    -4.343000000     0.197000000    -4.560000000
H    -4.367000000     0.703000000    -3.747000000
H    -4.580000000     0.826000000    -5.241000000
O    -5.448000000    -2.925000000    -2.455000000
H    -4.532000000    -2.716000000    -2.273000000
H    -5.903000000    -2.085000000    -2.390000000
O    -4.261000000     0.512000000    -1.278000000
H    -3.943000000     1.308000000    -0.853000000
H    -3.654000000    -0.171000000    -0.994000000
O    -5.336000000    -2.067000000     0.357000000
H    -5.707000000    -1.331000000    -0.130000000
H    -4.452000000    -2.166000000     0.004000000
O     1.772000000     4.571000000    -2.861000000
H     2.236000000     4.985000000    -3.589000000
H     1.256000000     3.876000000    -3.270000000
O     4.380000000    -3.606000000    -3.619000000
H     4.218000000    -2.662000000    -3.612000000
H     4.335000000    -3.850000000    -4.543000000
O    -0.985000000     1.837000000    -2.071000000
H    -1.605000000     2.355000000    -1.557000000
H    -0.314000000     1.573000000    -1.442000000
O     1.947000000     3.637000000     2.227000000
H     2.847000000     3.340000000     2.367000000
H     2.008000000     4.249000000     1.494000000
O    -4.799000000     1.244000000     4.662000000
H    -5.246000000     0.965000000     5.462000000
H    -3.931000000     1.518000000     4.956000000
O    -6.814000000    -0.616000000    -2.150000000
H    -7.603000000    -0.109000000    -2.344000000
H    -6.121000000     0.040000000    -2.074000000
O    -3.504000000    -5.000000000    -0.636000000
H    -3.087000000    -5.067000000     0.223000000
H    -3.678000000    -4.065000000    -0.744000000
O     5.634000000     2.104000000    -0.007000000
H     6.142000000     1.298000000    -0.095000000
H     6.286000000     2.778000000     0.184000000
O     2.385000000     4.816000000    -0.230000000
H     3.306000000     4.899000000    -0.479000000
H     1.948000000     4.515000000    -1.026000000
O     4.485000000     2.889000000    -2.509000000
H     4.830000000     2.479000000    -1.715000000
H     4.744000000     3.807000000    -2.436000000
O    -1.898000000    -4.876000000    -3.749000000
H    -1.709000000    -4.134000000    -3.174000000
H    -1.599000000    -5.641000000    -3.258000000
O    -1.804000000    -1.451000000    -4.748000000
H    -2.625000000    -0.958000000    -4.730000000
H    -1.733000000    -1.829000000    -3.871000000
O    -4.406000000    -1.476000000     3.065000000
H    -4.620000000    -0.670000000     3.535000000
H    -4.844000000    -1.384000000     2.219000000
O     4.698000000     2.722000000     2.723000000
H     5.152000000     3.478000000     3.096000000
H     5.105000000     2.597000000     1.866000000
O     1.397000000     4.111000000     6.572000000
H     1.239000000     3.276000000     6.132000000
H     2.190000000     4.453000000     6.159000000
O    -3.582000000     2.826000000     2.555000000
H    -3.021000000     3.575000000     2.756000000
H    -3.157000000     2.086000000     2.989000000
O     5.910000000    -1.379000000     3.706000000
H     5.636000000    -0.482000000     3.516000000
H     5.716000000    -1.864000000     2.903000000
O    -2.504000000    -3.514000000    -6.588000000
H    -3.187000000    -4.074000000    -6.218000000
H    -2.490000000    -2.745000000    -6.019000000
O    -2.809000000    -3.621000000     4.391000000
H    -2.142000000    -3.281000000     4.986000000
H    -3.361000000    -2.864000000     4.192000000
O     1.275000000    -6.565000000    -0.529000000
H     1.259000000    -5.815000000    -1.123000000
H     0.414000000    -6.970000000    -0.630000000
O    -7.267000000    -3.934000000    -0.510000000
H    -6.823000000    -3.752000000    -1.338000000
H    -6.795000000    -3.408000000     0.136000000
O     1.027000000    -0.410000000     4.751000000
H     0.619000000    -0.957000000     4.079000000
H     0.629000000    -0.702000000     5.571000000
O     5.809000000     0.071000000    -3.440000000
H     4.946000000    -0.046000000    -3.836000000
H     5.877000000     1.014000000    -3.287000000
O     1.018000000    -1.811000000    -4.559000000
H     0.206000000    -1.314000000    -4.458000000
H     0.861000000    -2.373000000    -5.318000000
O    -1.905000000    -7.313000000    -1.715000000
H    -2.636000000    -6.696000000    -1.697000000
H    -2.316000000    -8.167000000    -1.848000000
O    -0.061000000     6.460000000    -2.171000000
H     0.589000000     6.997000000    -2.625000000
H     0.317000000     5.580000000    -2.166000000
O     5.488000000    -3.141000000     1.670000000
H     5.003000000    -2.721000000     0.960000000
H     6.124000000    -3.701000000     1.227000000
O     0.306000000    -3.730000000    -6.596000000
H    -0.635000000    -3.700000000    -6.421000000
H     0.529000000    -4.660000000    -6.553000000
O     0.130000000     2.879000000    -4.434000000
H    -0.166000000     2.379000000    -3.673000000
H    -0.619000000     2.874000000    -5.030000000
O    -2.782000000     3.614000000    -0.902000000
H    -3.480000000     4.267000000    -0.956000000
H    -2.297000000     3.846000000    -0.110000000
O    -0.494000000     3.871000000     0.664000000
H    -0.039000000     4.240000000    -0.093000000
H     0.202000000     3.680000000     1.292000000
O    -0.761000000    -4.801000000     0.856000000
H     0.189000000    -4.698000000     0.907000000
H    -1.109000000    -4.068000000     1.364000000
