158
-3020.44805
C    -1.315000000    -0.161000000     0.692000000
H    -2.142000000    -0.243000000     1.392000000
C    -0.287000000     0.782000000     0.991000000
H    -0.346000000     1.449000000     1.848000000
C     0.811000000     0.888000000     0.163000000
H     1.594000000     1.647000000     0.390000000
C     1.011000000     0.072000000    -0.925000000
H     1.996000000     0.090000000    -1.385000000
C     0.053000000    -0.988000000    -1.165000000
H     0.148000000    -1.768000000    -1.916000000
C    -1.118000000    -1.059000000    -0.396000000
C    -2.132000000    -2.151000000    -0.550000000
O    -3.294000000    -1.991000000    -0.103000000
O    -1.879000000    -2.999000000    -1.370000000
O    -2.235000000     3.771000000     2.664000000
H    -3.132000000     3.583000000     2.386000000
H    -1.958000000     4.497000000     2.105000000
O     4.375000000     3.674000000    -0.009000000
H     4.335000000     2.946000000     0.611000000
H     3.725000000     4.299000000     0.313000000
O    -1.461000000    -1.540000000    -5.320000000
H    -2.155000000    -1.487000000    -4.663000000
H    -0.822000000    -0.881000000    -5.048000000
O    -7.432000000    -3.814000000    -2.569000000
H    -6.534000000    -3.717000000    -2.252000000
H    -7.923000000    -4.122000000    -1.807000000
O     2.402000000     0.616000000     3.117000000
H     2.118000000    -0.263000000     2.865000000
H     3.008000000     0.879000000     2.424000000
O    -2.654000000     2.001000000     4.760000000
H    -2.285000000     2.279000000     3.922000000
H    -1.894000000     1.889000000     5.331000000
O     1.360000000     3.317000000     3.954000000
H     1.778000000     2.556000000     3.551000000
H     0.615000000     2.955000000     4.433000000
O    -2.346000000    -3.483000000     3.649000000
H    -2.231000000    -4.208000000     3.035000000
H    -3.008000000    -2.926000000     3.241000000
O     2.342000000    -3.887000000     0.248000000
H     1.963000000    -4.151000000    -0.591000000
H     3.280000000    -3.809000000     0.073000000
O     2.125000000    -0.741000000    -4.836000000
H     1.885000000    -0.437000000    -5.712000000
H     1.386000000    -0.487000000    -4.284000000
O    -1.076000000     5.371000000     5.358000000
H    -1.507000000     4.695000000     4.835000000
H    -0.875000000     4.939000000     6.188000000
O     4.174000000     6.757000000    -1.848000000
H     3.697000000     7.459000000    -2.290000000
H     3.537000000     6.380000000    -1.241000000
O    -0.883000000    -3.799000000    -3.633000000
H    -1.131000000    -3.088000000    -4.225000000
H    -1.207000000    -3.522000000    -2.776000000
O    -5.311000000    -3.560000000    -0.830000000
H    -4.882000000    -4.098000000    -1.495000000
H    -4.616000000    -2.992000000    -0.496000000
O    -4.370000000    -0.011000000    -1.663000000
H    -4.052000000     0.872000000    -1.472000000
H    -4.067000000    -0.539000000    -0.925000000
O    -4.480000000    -1.720000000     2.185000000
H    -4.227000000    -0.816000000     2.370000000
H    -3.943000000    -1.970000000     1.433000000
O     3.422000000    -2.906000000    -3.572000000
H     2.925000000    -2.163000000    -3.913000000
H     2.776000000    -3.428000000    -3.095000000
O     6.958000000     3.464000000    -1.599000000
H     6.852000000     4.240000000    -2.150000000
H     6.232000000     3.511000000    -0.977000000
O     7.843000000     0.974000000    -0.645000000
H     7.750000000     1.638000000    -1.329000000
H     7.039000000     0.458000000    -0.700000000
O     1.050000000     5.793000000     2.586000000
H     0.127000000     5.895000000     2.351000000
H     1.084000000     4.967000000     3.068000000
O    -6.830000000     0.349000000    -2.801000000
H    -7.341000000     0.497000000    -2.006000000
H    -5.955000000     0.124000000    -2.486000000
O    -2.300000000    -5.236000000    -0.278000000
H    -1.576000000    -5.812000000    -0.523000000
H    -2.096000000    -4.401000000    -0.698000000
O     5.309000000    -0.377000000    -0.410000000
H     5.404000000    -1.328000000    -0.451000000
H     5.095000000    -0.118000000    -1.306000000
O     0.762000000    -3.582000000     3.628000000
H    -0.039000000    -3.983000000     3.292000000
H     0.815000000    -2.740000000     3.176000000
O    -0.036000000     6.084000000    -1.466000000
H     0.351000000     5.610000000    -2.202000000
H    -0.486000000     6.827000000    -1.869000000
O     3.785000000     3.798000000    -2.815000000
H     2.947000000     4.260000000    -2.807000000
H     4.036000000     3.743000000    -1.893000000
O    -4.800000000    -5.318000000    -3.481000000
H    -3.861000000    -5.363000000    -3.657000000
H    -5.166000000    -4.873000000    -4.245000000
O    -3.511000000    -1.898000000    -3.393000000
H    -3.935000000    -1.247000000    -2.834000000
H    -3.080000000    -2.495000000    -2.781000000
O    -7.177000000    -0.622000000     2.415000000
H    -6.237000000    -0.737000000     2.278000000
H    -7.282000000     0.315000000     2.583000000
O     1.519000000    -1.759000000     1.890000000
H     1.033000000    -1.119000000     1.370000000
H     1.954000000    -2.314000000     1.241000000
O     4.338000000     1.251000000     1.497000000
H     5.088000000     1.229000000     2.091000000
H     4.581000000     0.663000000     0.782000000
O     3.434000000     1.931000000     6.001000000
H     2.713000000     1.891000000     6.630000000
H     3.240000000     1.238000000     5.370000000
O    -5.074000000     2.963000000     1.684000000
H    -5.597000000     3.200000000     0.919000000
H    -5.517000000     3.388000000     2.418000000
O     5.256000000    -1.897000000     2.957000000
H     5.368000000    -1.872000000     2.006000000
H     6.030000000    -2.360000000     3.277000000
O     1.482000000    -4.646000000    -2.390000000
H     1.932000000    -5.314000000    -2.907000000
H     0.613000000    -4.582000000    -2.785000000
O    -6.114000000    -4.335000000     1.764000000
H    -5.758000000    -4.561000000     0.905000000
H    -5.963000000    -3.393000000     1.846000000
O     4.047000000    -0.652000000     4.963000000
H     4.480000000    -1.353000000     4.476000000
H     3.382000000    -0.318000000     4.361000000
O     2.162000000     5.527000000     0.005000000
H     1.821000000     5.507000000     0.899000000
H     1.417000000     5.799000000    -0.530000000
O     4.492000000     0.138000000    -3.042000000
H     4.178000000    -0.499000000    -3.685000000
H     4.320000000     0.989000000    -3.444000000
O    -0.888000000    -5.605000000     2.786000000
H    -0.402000000    -5.741000000     1.972000000
H    -0.675000000    -6.369000000     3.323000000
O    -4.174000000    -7.359000000    -0.693000000
H    -4.781000000    -7.495000000     0.034000000
H    -3.663000000    -6.591000000    -0.438000000
O    -1.417000000     5.541000000     0.856000000
H    -0.889000000     5.596000000     0.059000000
H    -2.276000000     5.876000000     0.598000000
O    -2.408000000    -5.365000000    -5.466000000
H    -2.542000000    -4.808000000    -6.232000000
H    -1.688000000    -4.950000000    -4.991000000
O    -0.152000000     0.525000000    -4.261000000
H     0.144000000     1.155000000    -3.605000000
H    -0.128000000     1.009000000    -5.087000000
O    -3.391000000     2.334000000    -0.504000000
H    -3.837000000     2.759000000     0.229000000
H    -2.515000000     2.141000000    -0.171000000
O     0.043000000     3.074000000    -3.155000000
H     0.607000000     3.816000000    -3.375000000
H    -0.814000000     3.311000000    -3.511000000
O    -4.114000000     0.655000000     3.084000000
H    -3.884000000     1.063000000     3.919000000
H    -4.613000000     1.327000000     2.620000000
O     0.388000000    -5.904000000     0.356000000
H     0.769000000    -6.282000000    -0.436000000
H     0.859000000    -5.080000000     0.479000000
