158
-2996.74166
C    -0.351000000     0.692000000     1.299000000
H    -0.704000000     1.290000000     2.135000000
C    -0.100000000     1.308000000     0.020000000
H    -0.328000000     2.368000000    -0.053000000
C     0.176000000     0.505000000    -1.108000000
H     0.421000000     0.916000000    -2.008000000
C     0.279000000    -0.852000000    -1.008000000
H     0.528000000    -1.473000000    -1.864000000
C     0.089000000    -1.411000000     0.261000000
H     0.085000000    -2.497000000     0.308000000
C    -0.252000000    -0.668000000     1.387000000
C    -0.602000000    -1.394000000     2.714000000
O    -0.497000000    -2.627000000     2.669000000
O    -0.675000000    -0.804000000     3.727000000
O     4.247000000     4.395000000    -2.975000000
H     3.649000000     5.069000000    -3.298000000
H     4.844000000     4.234000000    -3.705000000
O    -3.786000000    -4.290000000     3.917000000
H    -2.899000000    -3.933000000     3.872000000
H    -4.210000000    -3.979000000     3.118000000
O    -3.390000000     4.515000000     4.081000000
H    -3.841000000     4.986000000     4.782000000
H    -3.621000000     3.597000000     4.221000000
O     1.934000000    -0.123000000     4.440000000
H     1.978000000    -1.032000000     4.738000000
H     1.021000000    -0.001000000     4.180000000
O     0.569000000    -6.390000000    -0.270000000
H    -0.133000000    -5.970000000     0.226000000
H     1.162000000    -5.674000000    -0.500000000
O     0.426000000     1.770000000    -7.520000000
H     1.092000000     1.805000000    -6.833000000
H     0.740000000     2.381000000    -8.188000000
O     2.377000000     2.005000000    -5.475000000
H     1.892000000     2.632000000    -4.939000000
H     3.297000000     2.213000000    -5.315000000
O    -2.355000000     4.077000000     0.128000000
H    -2.710000000     4.963000000     0.063000000
H    -2.800000000     3.588000000    -0.563000000
O     2.526000000     2.162000000     2.464000000
H     2.012000000     1.803000000     1.741000000
H     2.224000000     1.681000000     3.235000000
O     1.220000000     4.824000000     2.626000000
H     1.739000000     4.082000000     2.314000000
H     0.320000000     4.500000000     2.632000000
O    -2.842000000    -2.669000000    -0.212000000
H    -2.637000000    -1.745000000    -0.351000000
H    -2.160000000    -3.141000000    -0.690000000
O     2.598000000    -4.652000000     0.060000000
H     3.106000000    -5.444000000     0.237000000
H     2.310000000    -4.354000000     0.923000000
O     3.320000000    -0.004000000    -7.699000000
H     3.436000000     0.554000000    -8.468000000
H     2.744000000     0.499000000    -7.123000000
O    -3.446000000    -1.181000000     4.296000000
H    -2.496000000    -1.195000000     4.180000000
H    -3.768000000    -1.873000000     3.719000000
O     0.226000000    -4.759000000    -4.586000000
H     0.096000000    -3.867000000    -4.908000000
H     1.172000000    -4.897000000    -4.638000000
O    -1.061000000    -3.052000000     5.728000000
H    -1.135000000    -2.384000000     5.046000000
H    -0.771000000    -3.837000000     5.265000000
O     5.955000000     3.229000000    -1.008000000
H     5.181000000     3.459000000    -1.522000000
H     6.479000000     2.685000000    -1.596000000
O     3.787000000    -2.733000000    -1.460000000
H     3.496000000    -3.438000000    -0.883000000
H     3.513000000    -1.931000000    -1.016000000
O    -3.890000000     2.905000000    -1.663000000
H    -4.117000000     2.350000000    -2.409000000
H    -4.623000000     2.802000000    -1.056000000
O     0.646000000    -1.169000000     7.317000000
H    -0.200000000    -1.567000000     7.113000000
H     0.963000000    -0.835000000     6.478000000
O    -0.332000000     5.288000000    -6.108000000
H    -0.649000000     6.022000000    -6.633000000
H    -0.950000000     4.579000000    -6.288000000
O    -0.768000000    -0.046000000    -6.057000000
H    -1.435000000    -0.526000000    -6.546000000
H    -0.589000000     0.728000000    -6.592000000
O     3.112000000    -0.617000000     0.194000000
H     2.163000000    -0.719000000     0.126000000
H     3.348000000    -0.065000000    -0.551000000
O    -2.802000000     0.083000000    -0.921000000
H    -1.853000000     0.206000000    -0.935000000
H    -3.143000000     0.893000000    -0.541000000
O    -0.391000000     4.750000000    -1.771000000
H    -0.234000000     5.684000000    -1.634000000
H    -0.937000000     4.487000000    -1.029000000
O    -1.888000000    -1.611000000    -4.009000000
H    -2.697000000    -1.101000000    -4.061000000
H    -1.212000000    -1.021000000    -4.342000000
O     1.315000000     3.072000000     5.260000000
H     0.703000000     2.337000000     5.223000000
H     0.954000000     3.716000000     4.651000000
O     2.062000000    -0.568000000    -3.892000000
H     1.762000000    -1.192000000    -4.553000000
H     1.735000000     0.279000000    -4.197000000
O    -4.159000000    -0.024000000    -4.318000000
H    -4.703000000     0.721000000    -4.063000000
H    -4.401000000    -0.199000000    -5.227000000
O    -4.206000000     1.457000000     4.268000000
H    -3.870000000     0.573000000     4.122000000
H    -5.005000000     1.499000000     3.743000000
O     0.801000000    -2.530000000    -6.264000000
H     0.075000000    -1.914000000    -6.170000000
H     0.829000000    -2.726000000    -7.200000000
O    -4.435000000    -2.519000000     1.934000000
H    -3.951000000    -2.457000000     1.111000000
H    -5.343000000    -2.338000000     1.691000000
O    -1.393000000    -6.251000000     4.109000000
H    -1.609000000    -5.829000000     3.277000000
H    -0.476000000    -6.511000000     4.015000000
O     4.758000000    -0.452000000     2.271000000
H     4.100000000    -0.698000000     2.922000000
H     4.320000000    -0.578000000     1.429000000
O    -3.919000000     4.473000000    -3.590000000
H    -4.137000000     3.796000000    -4.230000000
H    -3.730000000     3.990000000    -2.785000000
O    -1.516000000    -4.692000000     1.733000000
H    -1.021000000    -3.889000000     1.899000000
H    -2.027000000    -4.499000000     0.947000000
O    -0.703000000     1.290000000     5.457000000
H    -1.467000000     1.219000000     6.029000000
H    -0.908000000     0.725000000     4.712000000
O     5.058000000    -1.905000000    -3.865000000
H     5.788000000    -2.519000000    -3.939000000
H     4.673000000    -2.092000000    -3.009000000
O    -1.163000000    -3.655000000    -2.377000000
H    -1.579000000    -2.967000000    -2.897000000
H    -0.598000000    -4.115000000    -2.997000000
O    -2.274000000     0.885000000     7.518000000
H    -2.167000000    -0.063000000     7.596000000
H    -2.781000000     1.132000000     8.291000000
O     2.960000000    -4.204000000    -4.031000000
H     3.597000000    -3.815000000    -4.631000000
H     2.813000000    -3.530000000    -3.368000000
O     2.068000000    -3.578000000     2.603000000
H     1.169000000    -3.357000000     2.359000000
H     2.103000000    -3.432000000     3.548000000
O     2.232000000    -2.625000000     5.384000000
H     1.802000000    -3.392000000     5.762000000
H     3.164000000    -2.766000000     5.550000000
O     3.683000000     1.743000000     5.787000000
H     3.251000000     0.953000000     5.462000000
H     3.006000000     2.419000000     5.749000000
O    -1.208000000     4.148000000     2.395000000
H    -1.874000000     4.347000000     3.052000000
H    -1.684000000     4.148000000     1.564000000
O     2.354000000     3.147000000    -0.956000000
H     1.514000000     3.347000000    -0.543000000
H     2.418000000     3.768000000    -1.681000000
O     3.491000000     0.749000000    -1.953000000
H     3.048000000     1.581000000    -1.788000000
H     3.063000000     0.400000000    -2.734000000
O     1.246000000     4.059000000    -3.902000000
H     0.770000000     4.555000000    -4.568000000
H     0.676000000     4.083000000    -3.133000000
