158
-3039.31099
C    -1.148000000     0.920000000    -0.101000000
H    -1.867000000     1.732000000    -0.039000000
C    -0.310000000     0.699000000     0.996000000
H    -0.290000000     1.515000000     1.713000000
C     0.639000000    -0.297000000     1.024000000
H     1.348000000    -0.390000000     1.866000000
C     0.871000000    -1.070000000    -0.096000000
H     1.650000000    -1.814000000    -0.243000000
C     0.076000000    -0.817000000    -1.182000000
H     0.200000000    -1.506000000    -2.013000000
C    -0.959000000     0.144000000    -1.252000000
C    -1.693000000     0.387000000    -2.485000000
O    -2.499000000     1.281000000    -2.630000000
O    -1.429000000    -0.260000000    -3.432000000
O    -0.489000000    -5.459000000    -0.534000000
H    -1.059000000    -4.726000000    -0.300000000
H     0.084000000    -5.568000000     0.224000000
O     3.130000000    -5.764000000    -1.804000000
H     2.419000000    -5.646000000    -2.434000000
H     2.923000000    -6.588000000    -1.362000000
O    -1.970000000     2.116000000     4.358000000
H    -2.257000000     1.236000000     4.115000000
H    -1.991000000     2.610000000     3.538000000
O    -2.568000000    -0.632000000     3.682000000
H    -1.970000000    -0.793000000     2.952000000
H    -3.078000000    -1.438000000     3.756000000
O     1.259000000    -5.606000000     1.820000000
H     1.611000000    -5.928000000     2.650000000
H     1.986000000    -5.129000000     1.420000000
O    -4.149000000     2.003000000    -4.489000000
H    -3.625000000     1.484000000    -3.879000000
H    -3.505000000     2.461000000    -5.029000000
O     0.870000000     3.414000000     3.082000000
H    -0.083000000     3.459000000     3.000000000
H     1.048000000     3.729000000     3.969000000
O     2.406000000     1.875000000    -0.288000000
H     1.662000000     1.276000000    -0.231000000
H     2.892000000     1.733000000     0.525000000
O    -5.295000000     3.436000000     1.651000000
H    -4.902000000     2.563000000     1.661000000
H    -4.776000000     3.924000000     1.012000000
O     5.228000000    -0.246000000     4.310000000
H     6.170000000    -0.076000000     4.276000000
H     4.848000000     0.571000000     4.631000000
O    -1.811000000     3.859000000    -2.505000000
H    -2.012000000     2.933000000    -2.643000000
H    -0.872000000     3.875000000    -2.319000000
O    -5.539000000     3.916000000    -1.631000000
H    -6.395000000     3.487000000    -1.615000000
H    -5.428000000     4.194000000    -2.540000000
O     2.812000000     0.933000000    -2.644000000
H     2.631000000     1.357000000    -1.806000000
H     3.723000000     0.648000000    -2.577000000
O    -4.314000000    -1.035000000    -3.697000000
H    -3.558000000    -0.682000000    -3.228000000
H    -4.805000000    -1.516000000    -3.031000000
O    -5.113000000    -0.195000000    -6.171000000
H    -4.195000000    -0.040000000    -6.396000000
H    -5.110000000    -0.319000000    -5.222000000
O     0.113000000     3.227000000     5.919000000
H     0.676000000     2.462000000     6.037000000
H    -0.656000000     2.891000000     5.458000000
O    -2.146000000    -0.141000000    -6.033000000
H    -2.067000000     0.005000000    -5.091000000
H    -2.048000000     0.730000000    -6.419000000
O    -4.176000000     1.910000000    -0.371000000
H    -4.671000000     2.662000000    -0.697000000
H    -3.503000000     1.760000000    -1.036000000
O     0.634000000    -5.052000000    -3.001000000
H     0.164000000    -4.381000000    -3.497000000
H     0.142000000    -5.133000000    -2.183000000
O     4.720000000    -3.581000000    -2.201000000
H     5.082000000    -3.806000000    -1.345000000
H     3.960000000    -4.155000000    -2.298000000
O    -0.525000000    -3.737000000     2.715000000
H    -0.512000000    -3.653000000     3.668000000
H     0.137000000    -4.401000000     2.523000000
O    -0.961000000    -2.162000000    -7.508000000
H    -0.352000000    -2.493000000    -6.848000000
H    -1.470000000    -1.493000000    -7.049000000
O    -1.981000000     4.230000000     2.466000000
H    -2.051000000     4.906000000     3.140000000
H    -1.977000000     4.715000000     1.640000000
O    -7.036000000     1.408000000    -3.989000000
H    -7.234000000     2.139000000    -3.404000000
H    -6.130000000     1.557000000    -4.261000000
O    -3.068000000    -3.754000000    -0.630000000
H    -2.810000000    -3.188000000     0.098000000
H    -3.682000000    -3.224000000    -1.138000000
O     0.651000000     3.877000000    -1.739000000
H     1.303000000     3.195000000    -1.576000000
H     1.163000000     4.638000000    -2.014000000
O     3.067000000     1.558000000     5.160000000
H     2.980000000     2.486000000     5.378000000
H     2.337000000     1.136000000     5.613000000
O     5.092000000    -0.698000000    -1.472000000
H     4.805000000    -1.559000000    -1.777000000
H     4.709000000    -0.613000000    -0.599000000
O    -5.185000000    -0.473000000     0.724000000
H    -4.728000000     0.280000000     0.349000000
H    -5.441000000    -0.186000000     1.601000000
O    -1.172000000    -2.887000000    -4.242000000
H    -0.315000000    -2.480000000    -4.373000000
H    -1.741000000    -2.166000000    -3.974000000
O    -1.900000000    -0.179000000     6.342000000
H    -1.521000000    -0.912000000     6.827000000
H    -2.097000000    -0.540000000     5.478000000
O    -2.429000000     5.272000000     0.057000000
H    -2.704000000     6.156000000    -0.187000000
H    -2.255000000     4.836000000    -0.777000000
O     4.020000000    -0.701000000     1.057000000
H     3.600000000    -1.274000000     1.699000000
H     3.982000000     0.170000000     1.452000000
O     3.654000000    -4.635000000     2.023000000
H     4.173000000    -4.603000000     1.220000000
H     4.229000000    -5.052000000     2.664000000
O    -3.911000000    -2.963000000    -6.616000000
H    -4.438000000    -2.269000000    -6.219000000
H    -3.033000000    -2.833000000    -6.257000000
O     3.233000000    -1.773000000     3.440000000
H     3.287000000    -2.671000000     3.767000000
H     4.133000000    -1.450000000     3.479000000
O     0.869000000     1.376000000    -7.395000000
H     0.033000000     1.621000000    -7.791000000
H     0.754000000     1.553000000    -6.462000000
O    -3.565000000     5.404000000    -3.878000000
H    -3.983000000     4.859000000    -4.544000000
H    -2.897000000     4.838000000    -3.489000000
O    -0.290000000    -3.809000000     5.343000000
H     0.515000000    -3.458000000     5.723000000
H    -0.797000000    -4.112000000     6.097000000
O     2.627000000     4.732000000     0.839000000
H     2.852000000     4.023000000     0.236000000
H     1.908000000     4.382000000     1.363000000
O     3.152000000     1.435000000     2.270000000
H     3.294000000     0.980000000     3.100000000
H     2.446000000     2.055000000     2.455000000
O     0.861000000     0.690000000     6.459000000
H     0.778000000     0.414000000     7.372000000
H    -0.039000000     0.725000000     6.136000000
O     2.417000000    -2.336000000     6.286000000
H     2.338000000    -2.361000000     7.240000000
H     2.036000000    -1.494000000     6.036000000
O     0.663000000     1.338000000    -4.486000000
H     1.402000000     1.086000000    -3.933000000
H    -0.047000000     0.755000000    -4.218000000
O    -2.288000000     3.399000000    -6.000000000
H    -1.466000000     3.868000000    -5.851000000
H    -2.312000000     3.253000000    -6.945000000
O     5.576000000     2.289000000     1.325000000
H     4.837000000     2.088000000     1.899000000
H     6.175000000     2.795000000     1.875000000
O     1.125000000    -2.107000000    -5.719000000
H     1.533000000    -2.553000000    -6.462000000
H     1.858000000    -1.723000000    -5.239000000
O    -1.929000000    -1.960000000     1.225000000
H    -1.467000000    -1.137000000     1.069000000
H    -1.333000000    -2.469000000     1.775000000
