158
-3020.86522
C     0.002000000     1.312000000     0.576000000
H    -0.109000000     2.230000000     1.147000000
C    -0.407000000     0.137000000     1.161000000
H    -0.535000000     0.171000000     2.240000000
C    -0.437000000    -1.051000000     0.508000000
H    -0.827000000    -1.907000000     0.974000000
C    -0.048000000    -1.048000000    -0.817000000
H    -0.036000000    -1.996000000    -1.348000000
C     0.383000000     0.135000000    -1.435000000
H     0.768000000     0.117000000    -2.452000000
C     0.370000000     1.350000000    -0.717000000
C     1.075000000     2.529000000    -1.361000000
O     1.177000000     3.631000000    -0.779000000
O     1.576000000     2.446000000    -2.439000000
O    -2.098000000    -3.997000000    -1.299000000
H    -2.098000000    -4.950000000    -1.384000000
H    -2.001000000    -3.677000000    -2.196000000
O     0.739000000    -3.376000000    -3.595000000
H     1.260000000    -4.179000000    -3.574000000
H     1.333000000    -2.696000000    -3.275000000
O    -5.458000000    -1.905000000    -0.531000000
H    -5.008000000    -1.720000000    -1.356000000
H    -5.055000000    -1.310000000     0.100000000
O     2.220000000    -2.223000000     2.292000000
H     2.471000000    -2.462000000     1.400000000
H     1.337000000    -2.576000000     2.396000000
O     4.758000000    -2.974000000     2.853000000
H     4.673000000    -3.896000000     3.094000000
H     3.864000000    -2.696000000     2.651000000
O    -1.505000000     7.421000000    -2.741000000
H    -0.918000000     6.665000000    -2.726000000
H    -2.220000000     7.156000000    -3.320000000
O     5.166000000     4.982000000    -5.211000000
H     5.260000000     5.928000000    -5.326000000
H     4.498000000     4.888000000    -4.532000000
O     3.443000000     0.719000000    -3.337000000
H     4.144000000     0.912000000    -2.715000000
H     2.814000000     1.431000000    -3.218000000
O    -0.999000000     3.579000000     3.183000000
H    -0.720000000     4.352000000     3.674000000
H    -1.332000000     2.979000000     3.850000000
O     0.729000000    -6.209000000    -0.318000000
H     0.559000000    -6.997000000    -0.835000000
H     1.437000000    -5.765000000    -0.784000000
O    -4.454000000    -0.394000000     3.957000000
H    -4.864000000    -1.251000000     3.843000000
H    -3.604000000    -0.585000000     4.351000000
O     2.655000000    -1.732000000    -2.447000000
H     3.270000000    -2.309000000    -2.900000000
H     2.968000000    -0.849000000    -2.641000000
O     1.886000000     6.625000000    -1.177000000
H     2.071000000     5.909000000    -0.569000000
H     1.272000000     6.250000000    -1.809000000
O    -3.337000000     0.424000000    -0.732000000
H    -2.451000000     0.117000000    -0.536000000
H    -3.592000000    -0.063000000    -1.515000000
O    -2.593000000     2.473000000    -3.471000000
H    -2.898000000     2.528000000    -2.565000000
H    -3.155000000     1.810000000    -3.873000000
O    -0.071000000     2.835000000    -4.537000000
H    -0.963000000     2.711000000    -4.211000000
H     0.486000000     2.686000000    -3.772000000
O     1.630000000     3.078000000     2.966000000
H     0.676000000     3.158000000     2.957000000
H     1.803000000     2.340000000     3.550000000
O     0.307000000     5.213000000    -3.020000000
H     0.624000000     4.536000000    -2.422000000
H     0.237000000     4.771000000    -3.866000000
O    -0.584000000     5.033000000     0.713000000
H    -0.744000000     4.397000000     1.411000000
H     0.008000000     4.583000000     0.110000000
O     2.114000000    -5.342000000     1.701000000
H     1.432000000    -5.652000000     1.104000000
H     2.778000000    -4.959000000     1.128000000
O    -3.861000000    -1.028000000    -2.657000000
H    -3.160000000    -1.503000000    -3.102000000
H    -4.290000000    -0.528000000    -3.351000000
O    -3.086000000     5.756000000     0.224000000
H    -3.363000000     5.095000000    -0.410000000
H    -2.198000000     5.498000000     0.469000000
O     5.010000000     5.124000000    -0.753000000
H     5.789000000     5.398000000    -0.270000000
H     4.352000000     4.965000000    -0.076000000
O    -0.563000000     7.648000000     1.821000000
H    -0.821000000     8.258000000     1.130000000
H    -0.875000000     6.796000000     1.518000000
O     4.707000000     6.480000000     2.100000000
H     3.847000000     6.159000000     1.831000000
H     5.267000000     5.704000000     2.090000000
O     0.891000000    -0.115000000    -5.385000000
H     0.229000000     0.566000000    -5.508000000
H     1.599000000     0.323000000    -4.912000000
O    -2.097000000    -0.842000000     5.156000000
H    -1.190000000    -1.146000000     5.132000000
H    -2.141000000    -0.280000000     5.930000000
O    -2.778000000    -3.430000000     5.955000000
H    -2.330000000    -2.650000000     5.629000000
H    -2.212000000    -3.758000000     6.654000000
O     0.863000000    -1.838000000     4.877000000
H     0.254000000    -2.564000000     4.745000000
H     1.664000000    -2.252000000     5.199000000
O    -4.277000000     3.077000000    -1.063000000
H    -3.870000000     2.222000000    -0.923000000
H    -5.213000000     2.887000000    -1.134000000
O     2.920000000     4.662000000     0.903000000
H     2.398000000     4.314000000     0.180000000
H     2.546000000     4.258000000     1.686000000
O     3.045000000    -5.610000000     4.484000000
H     2.363000000    -5.667000000     3.815000000
H     2.915000000    -4.751000000     4.886000000
O    -4.176000000    -3.165000000     3.481000000
H    -3.751000000    -3.367000000     4.314000000
H    -3.520000000    -3.379000000     2.819000000
O     4.474000000     1.421000000    -6.174000000
H     4.375000000     2.373000000    -6.193000000
H     4.378000000     1.189000000    -5.250000000
O     3.415000000     4.327000000    -3.412000000
H     2.891000000     3.720000000    -2.889000000
H     3.772000000     4.946000000    -2.775000000
O    -3.841000000    -4.020000000     0.727000000
H    -3.462000000    -4.027000000    -0.151000000
H    -4.623000000    -3.473000000     0.647000000
O     5.029000000     1.835000000    -1.110000000
H     5.709000000     2.497000000    -0.991000000
H     5.198000000     1.190000000    -0.423000000
O     2.193000000     7.150000000    -4.339000000
H     1.727000000     6.489000000    -3.827000000
H     1.510000000     7.755000000    -4.628000000
O    -2.003000000    -2.864000000    -3.886000000
H    -2.226000000    -2.912000000    -4.816000000
H    -1.047000000    -2.917000000    -3.866000000
O    -2.517000000     2.416000000     5.005000000
H    -3.086000000     1.697000000     4.729000000
H    -3.119000000     3.099000000     5.298000000
O     3.219000000    -2.981000000    -0.021000000
H     2.844000000    -2.592000000    -0.812000000
H     3.919000000    -3.548000000    -0.342000000
O    -2.648000000    -6.616000000     0.199000000
H    -2.885000000    -5.780000000     0.602000000
H    -1.919000000    -6.939000000     0.729000000
O     0.019000000    -4.146000000     3.455000000
H     0.445000000    -4.744000000     2.840000000
H    -0.134000000    -4.676000000     4.237000000
O    -1.990000000    -5.980000000    -3.477000000
H    -1.736000000    -5.228000000    -4.011000000
H    -1.160000000    -6.348000000    -3.172000000
O     3.819000000    -0.073000000     0.730000000
H     3.136000000     0.551000000     0.488000000
H     3.347000000    -0.800000000     1.137000000
O     2.120000000     0.689000000     4.264000000
H     2.018000000     0.270000000     3.409000000
H     1.584000000     0.161000000     4.855000000
O     1.244000000     4.139000000    -6.901000000
H     0.424000000     4.163000000    -7.395000000
H     1.014000000     3.714000000    -6.075000000
O    -5.187000000    -0.151000000     1.400000000
H    -4.633000000     0.501000000     0.970000000
H    -4.849000000    -0.201000000     2.294000000
