158
-3046.92563
C    -0.568000000     1.040000000     0.928000000
H    -0.918000000     1.741000000     1.681000000
C     0.268000000    -0.048000000     1.341000000
H     0.404000000    -0.237000000     2.402000000
C     0.767000000    -0.959000000     0.349000000
H     1.351000000    -1.802000000     0.639000000
C     0.436000000    -0.686000000    -0.960000000
H     0.921000000    -1.358000000    -1.664000000
C    -0.372000000     0.346000000    -1.309000000
H    -0.594000000     0.404000000    -2.371000000
C    -0.883000000     1.258000000    -0.413000000
C    -1.795000000     2.345000000    -0.862000000
O    -2.379000000     3.007000000    -0.103000000
O    -1.992000000     2.606000000    -2.070000000
O    -1.728000000    -5.440000000    -0.392000000
H    -1.437000000    -4.933000000    -1.150000000
H    -2.422000000    -4.909000000    -0.001000000
O     2.820000000    -3.643000000    -4.134000000
H     2.275000000    -4.389000000    -3.885000000
H     2.457000000    -3.348000000    -4.969000000
O    -2.671000000     2.176000000     5.217000000
H    -2.912000000     2.686000000     4.444000000
H    -3.463000000     1.685000000     5.437000000
O     2.315000000    -4.211000000     0.434000000
H     2.136000000    -3.961000000     1.341000000
H     2.972000000    -3.581000000     0.137000000
O    -3.599000000     5.231000000    -0.513000000
H    -3.081000000     4.467000000    -0.259000000
H    -3.893000000     5.034000000    -1.403000000
O     2.671000000     0.696000000    -3.288000000
H     3.362000000     1.344000000    -3.151000000
H     2.056000000     0.846000000    -2.570000000
O    -5.746000000     1.468000000    -1.310000000
H    -5.249000000     2.264000000    -1.499000000
H    -5.495000000     1.236000000    -0.416000000
O    -3.499000000    -0.482000000     2.476000000
H    -3.760000000    -0.377000000     3.391000000
H    -4.251000000    -0.167000000     1.975000000
O    -0.535000000     6.735000000     1.851000000
H    -0.107000000     6.096000000     1.281000000
H    -0.687000000     7.494000000     1.288000000
O     2.113000000    -3.747000000     3.045000000
H     2.777000000    -3.114000000     3.318000000
H     1.883000000    -4.214000000     3.849000000
O    -3.554000000    -3.059000000    -3.414000000
H    -3.782000000    -2.359000000    -2.803000000
H    -3.790000000    -2.711000000    -4.275000000
O    -0.522000000    -1.746000000    -7.078000000
H    -0.252000000    -0.903000000    -6.714000000
H     0.229000000    -2.322000000    -6.933000000
O    -0.310000000     4.063000000     5.458000000
H    -0.864000000     4.843000000     5.434000000
H    -0.909000000     3.337000000     5.286000000
O    -4.325000000     4.057000000    -3.065000000
H    -3.596000000     3.667000000    -2.582000000
H    -3.927000000     4.391000000    -3.869000000
O    -3.419000000     2.747000000     2.262000000
H    -3.290000000     1.811000000     2.416000000
H    -3.061000000     2.897000000     1.387000000
O     1.750000000    -5.162000000    -2.165000000
H     1.270000000    -4.414000000    -2.520000000
H     1.901000000    -4.935000000    -1.247000000
O     4.668000000    -1.537000000    -3.739000000
H     4.156000000    -1.044000000    -3.097000000
H     4.045000000    -2.159000000    -4.114000000
O     6.122000000    -4.668000000    -0.444000000
H     5.443000000    -4.090000000    -0.097000000
H     6.599000000    -4.127000000    -1.073000000
O    -1.119000000    -5.234000000     3.483000000
H    -0.625000000    -5.419000000     2.684000000
H    -2.031000000    -5.195000000     3.197000000
O     2.479000000    -0.575000000     6.811000000
H     3.229000000    -1.055000000     7.162000000
H     2.107000000    -1.161000000     6.152000000
O    -1.234000000    -2.452000000     3.561000000
H    -1.998000000    -2.230000000     3.028000000
H    -1.208000000    -3.409000000     3.556000000
O     4.169000000    -2.013000000     3.041000000
H     5.014000000    -2.072000000     3.487000000
H     3.689000000    -1.341000000     3.525000000
O    -1.453000000     0.845000000    -5.870000000
H    -2.385000000     0.664000000    -5.747000000
H    -1.247000000     1.503000000    -5.206000000
O    -4.151000000     5.559000000     2.041000000
H    -3.834000000     5.696000000     1.149000000
H    -4.051000000     4.618000000     2.190000000
O     0.611000000     4.379000000     2.867000000
H    -0.155000000     4.926000000     3.044000000
H     0.696000000     3.828000000     3.645000000
O     0.232000000    -6.172000000     1.143000000
H     1.001000000    -5.784000000     0.724000000
H    -0.486000000    -5.999000000     0.534000000
O    -3.967000000     1.166000000    -5.079000000
H    -4.601000000     1.217000000    -4.363000000
H    -3.505000000     2.004000000    -5.050000000
O    -0.906000000    -3.544000000    -2.651000000
H    -0.557000000    -2.797000000    -3.137000000
H    -1.810000000    -3.626000000    -2.954000000
O    -5.720000000     0.724000000     1.376000000
H    -6.394000000     0.100000000     1.643000000
H    -6.056000000     1.575000000     1.660000000
O     2.626000000     4.545000000    -1.631000000
H     2.481000000     3.963000000    -0.885000000
H     3.240000000     4.070000000    -2.190000000
O     1.674000000    -7.410000000     3.181000000
H     1.065000000    -7.928000000     3.708000000
H     1.113000000    -6.911000000     2.588000000
O     0.520000000     1.619000000     7.065000000
H     1.179000000     0.945000000     7.232000000
H     0.384000000     1.591000000     6.118000000
O     0.345000000    -0.866000000    -4.549000000
H     1.102000000    -0.510000000    -4.083000000
H    -0.094000000    -0.097000000    -4.914000000
O     0.040000000     5.174000000    -0.502000000
H    -0.360000000     4.305000000    -0.534000000
H     0.926000000     5.042000000    -0.840000000
O     3.876000000    -0.072000000    -0.703000000
H     4.311000000     0.424000000    -0.010000000
H     2.997000000     0.302000000    -0.750000000
O     0.177000000     5.028000000    -5.268000000
H     0.978000000     5.111000000    -5.786000000
H     0.300000000     5.635000000    -4.538000000
O    -3.225000000    -2.058000000    -5.922000000
H    -3.339000000    -2.346000000    -6.828000000
H    -2.289000000    -1.877000000    -5.844000000
O     4.438000000    -2.546000000     0.213000000
H     4.395000000    -2.244000000     1.120000000
H     4.292000000    -1.757000000    -0.309000000
O     3.893000000     1.565000000     1.990000000
H     3.661000000     1.060000000     2.769000000
H     4.799000000     1.834000000     2.140000000
O    -2.583000000     4.133000000    -5.077000000
H    -2.983000000     4.409000000    -5.901000000
H    -1.708000000     4.521000000    -5.092000000
O    -2.034000000     7.568000000    -1.017000000
H    -2.336000000     6.674000000    -0.858000000
H    -2.475000000     7.830000000    -1.825000000
O     0.556000000    -0.569000000     4.878000000
H    -0.274000000    -0.588000000     5.355000000
H     0.460000000    -1.240000000     4.202000000
O     2.083000000     3.318000000     0.638000000
H     2.543000000     2.544000000     0.962000000
H     1.703000000     3.716000000     1.421000000
O     2.951000000     0.271000000     4.249000000
H     3.382000000     0.496000000     5.074000000
H     2.024000000     0.198000000     4.476000000
O    -0.245000000     2.681000000    -4.038000000
H    -0.066000000     3.600000000    -4.237000000
H    -0.861000000     2.709000000    -3.306000000
O     1.290000000     2.059000000    -6.206000000
H     0.852000000     2.381000000    -5.418000000
H     1.612000000     1.191000000    -5.963000000
O    -4.602000000    -1.000000000    -1.791000000
H    -3.807000000    -1.059000000    -1.260000000
H    -5.044000000    -0.212000000    -1.474000000
O    -2.545000000    -1.292000000    -0.259000000
H    -1.639000000    -1.291000000    -0.568000000
H    -2.498000000    -0.923000000     0.623000000
