158
-3051.06032
C    -0.238000000     1.299000000    -0.657000000
H    -0.619000000     2.249000000    -1.024000000
C    -1.242000000     0.307000000    -0.353000000
H    -2.289000000     0.591000000    -0.435000000
C    -0.893000000    -0.852000000     0.238000000
H    -1.636000000    -1.627000000     0.390000000
C     0.515000000    -1.143000000     0.462000000
H     0.892000000    -2.004000000     1.008000000
C     1.487000000    -0.187000000     0.161000000
H     2.511000000    -0.495000000     0.358000000
C     1.148000000     1.062000000    -0.419000000
C     2.181000000     2.027000000    -0.868000000
O     1.931000000     3.019000000    -1.500000000
O     3.287000000     1.900000000    -0.473000000
O    -5.489000000    -4.763000000    -0.377000000
H    -4.907000000    -5.250000000    -0.960000000
H    -5.147000000    -4.934000000     0.500000000
O    -5.183000000     4.288000000    -2.343000000
H    -4.707000000     3.959000000    -1.581000000
H    -5.444000000     5.176000000    -2.097000000
O    -1.298000000    -2.755000000     3.407000000
H    -1.058000000    -1.828000000     3.400000000
H    -0.461000000    -3.219000000     3.398000000
O    -4.259000000     1.399000000     1.434000000
H    -5.164000000     1.605000000     1.199000000
H    -4.335000000     0.767000000     2.148000000
O    -4.403000000    -5.975000000     1.608000000
H    -3.912000000    -5.153000000     1.602000000
H    -3.982000000    -6.500000000     2.290000000
O    -3.550000000    -1.892000000    -2.131000000
H    -3.481000000    -1.069000000    -2.615000000
H    -4.027000000    -1.662000000    -1.334000000
O    -0.008000000    -1.175000000    -2.696000000
H     0.537000000    -1.952000000    -2.575000000
H    -0.283000000    -0.935000000    -1.811000000
O     1.001000000     7.102000000    -1.805000000
H     0.546000000     7.235000000    -2.637000000
H     1.162000000     7.987000000    -1.476000000
O    -1.483000000    -1.105000000    -5.170000000
H    -0.715000000    -1.144000000    -4.600000000
H    -2.143000000    -0.644000000    -4.651000000
O    -4.740000000    -0.849000000     2.957000000
H    -4.762000000    -0.575000000     3.874000000
H    -4.854000000    -1.798000000     2.988000000
O    -1.691000000     2.646000000    -4.705000000
H    -1.560000000     3.549000000    -4.994000000
H    -0.828000000     2.363000000    -4.405000000
O     4.625000000    -0.482000000    -0.623000000
H     4.284000000    -0.984000000    -1.364000000
H     4.110000000     0.325000000    -0.623000000
O     1.335000000    -3.826000000    -2.250000000
H     1.984000000    -3.678000000    -1.563000000
H     1.808000000    -3.664000000    -3.066000000
O     1.302000000     4.724000000    -3.550000000
H     0.371000000     4.538000000    -3.432000000
H     1.747000000     4.081000000    -2.997000000
O     4.146000000     3.422000000    -3.165000000
H     4.122000000     4.377000000    -3.219000000
H     3.579000000     3.210000000    -2.424000000
O     3.981000000     4.480000000     0.121000000
H     3.442000000     4.896000000     0.794000000
H     3.563000000     3.632000000    -0.029000000
O    -6.262000000     0.436000000    -1.091000000
H    -6.273000000     1.102000000    -0.404000000
H    -5.912000000    -0.345000000    -0.662000000
O     0.408000000     4.710000000    -0.167000000
H     1.076000000     4.166000000    -0.585000000
H     0.496000000     5.564000000    -0.591000000
O     1.482000000    -3.853000000     3.381000000
H     1.933000000    -4.537000000     3.876000000
H     2.085000000    -3.110000000     3.393000000
O    -3.162000000    -3.679000000     1.226000000
H    -2.684000000    -3.324000000     1.975000000
H    -2.486000000    -3.856000000     0.572000000
O    -0.616000000     0.199000000     3.137000000
H    -0.339000000     0.172000000     2.221000000
H    -1.225000000     0.936000000     3.182000000
O     1.089000000     4.964000000     2.823000000
H     1.360000000     4.195000000     2.321000000
H     1.159000000     5.691000000     2.205000000
O     6.307000000     0.460000000     1.147000000
H     5.490000000     0.183000000     0.733000000
H     6.976000000     0.316000000     0.478000000
O     3.905000000     6.129000000    -2.048000000
H     4.052000000     5.499000000    -1.342000000
H     2.955000000     6.141000000    -2.164000000
O     3.652000000    -3.962000000     0.502000000
H     4.448000000    -3.452000000     0.354000000
H     3.942000000    -4.718000000     1.012000000
O    -4.796000000    -1.507000000     0.442000000
H    -4.463000000    -2.395000000     0.569000000
H    -4.763000000    -1.112000000     1.314000000
O     4.985000000     0.773000000    -4.182000000
H     4.850000000     1.522000000    -3.600000000
H     4.536000000     1.016000000    -4.992000000
O    -1.821000000     4.784000000     1.384000000
H    -1.757000000     4.067000000     2.015000000
H    -1.008000000     4.732000000     0.880000000
O     3.580000000    -1.653000000    -3.026000000
H     3.157000000    -2.239000000    -3.654000000
H     4.012000000    -0.993000000    -3.568000000
O    -1.368000000     4.551000000    -2.544000000
H    -1.968000000     3.855000000    -2.812000000
H    -1.223000000     4.396000000    -1.611000000
O    -2.541000000     2.317000000     3.382000000
H    -2.777000000     3.139000000     3.813000000
H    -3.301000000     2.103000000     2.841000000
O     1.109000000    -0.266000000     5.159000000
H     0.562000000    -0.010000000     4.416000000
H     1.814000000    -0.784000000     4.770000000
O     6.208000000    -2.768000000     0.032000000
H     7.146000000    -2.956000000     0.006000000
H     6.115000000    -1.945000000    -0.448000000
O    -3.758000000     3.360000000    -0.340000000
H    -3.292000000     3.985000000     0.215000000
H    -3.684000000     2.526000000     0.125000000
O    -2.444000000    -4.657000000    -3.440000000
H    -2.522000000    -4.284000000    -2.562000000
H    -2.024000000    -3.969000000    -3.956000000
O    -1.155000000    -4.221000000    -0.569000000
H    -0.417000000    -3.660000000    -0.803000000
H    -0.764000000    -5.083000000    -0.424000000
O    -3.444000000    -3.962000000     5.407000000
H    -3.699000000    -4.720000000     4.881000000
H    -2.921000000    -3.423000000     4.813000000
O     3.008000000    -1.731000000     2.928000000
H     3.597000000    -1.070000000     3.292000000
H     3.569000000    -2.269000000     2.369000000
O     1.683000000     5.708000000    -5.881000000
H     1.432000000     5.395000000    -5.012000000
H     1.101000000     6.450000000    -6.045000000
O     0.562000000     1.242000000    -3.932000000
H     1.457000000     1.184000000    -4.266000000
H     0.490000000     0.516000000    -3.312000000
O    -5.644000000    -3.394000000     3.191000000
H    -6.527000000    -3.409000000     2.820000000
H    -5.736000000    -3.821000000     4.043000000
O     2.627000000     2.838000000     2.319000000
H     3.004000000     2.980000000     3.187000000
H     3.147000000     2.127000000     1.945000000
O    -0.859000000    -6.609000000    -1.989000000
H    -1.526000000    -6.125000000    -2.475000000
H    -0.030000000    -6.342000000    -2.387000000
O     6.545000000     3.203000000     0.139000000
H     5.738000000     3.714000000     0.201000000
H     6.248000000     2.296000000     0.054000000
O     1.248000000    -5.122000000     0.955000000
H     1.923000000    -4.576000000     0.552000000
H     1.062000000    -4.695000000     1.791000000
O     7.458000000    -0.637000000    -1.208000000
H     8.117000000    -1.111000000    -1.716000000
H     6.680000000    -0.639000000    -1.765000000
O    -5.522000000     1.757000000    -3.438000000
H    -5.549000000     1.213000000    -2.651000000
H    -5.786000000     2.627000000    -3.138000000
O    -3.075000000     0.482000000    -3.658000000
H    -2.249000000     0.964000000    -3.628000000
H    -3.737000000     1.152000000    -3.828000000
