158
-3026.89609
C    -0.878000000     1.036000000    -0.644000000
H    -1.542000000     1.627000000    -1.269000000
C    -1.111000000    -0.276000000    -0.643000000
H    -1.892000000    -0.712000000    -1.259000000
C    -0.220000000    -1.209000000    -0.034000000
H    -0.454000000    -2.253000000     0.053000000
C     0.895000000    -0.755000000     0.656000000
H     1.540000000    -1.506000000     1.104000000
C     1.182000000     0.642000000     0.629000000
H     2.106000000     1.011000000     1.067000000
C     0.265000000     1.548000000     0.023000000
C     0.550000000     3.068000000    -0.078000000
O    -0.236000000     3.762000000    -0.649000000
O     1.544000000     3.501000000     0.439000000
O     6.335000000     0.947000000    -1.686000000
H     6.081000000     1.576000000    -1.011000000
H     5.986000000     1.313000000    -2.499000000
O    -5.201000000    -2.261000000    -2.580000000
H    -5.437000000    -2.196000000    -1.654000000
H    -4.811000000    -1.412000000    -2.788000000
O    -3.433000000    -2.253000000     1.160000000
H    -2.830000000    -2.576000000     0.490000000
H    -2.987000000    -1.494000000     1.536000000
O    -5.924000000    -1.562000000     0.010000000
H    -6.621000000    -1.427000000     0.652000000
H    -5.169000000    -1.835000000     0.530000000
O    -0.487000000     6.257000000    -5.100000000
H    -0.921000000     5.739000000    -4.421000000
H    -1.180000000     6.814000000    -5.456000000
O     1.225000000    -0.646000000    -3.273000000
H     1.569000000    -1.431000000    -3.700000000
H     1.105000000    -0.904000000    -2.359000000
O     4.096000000     5.871000000    -2.346000000
H     4.284000000     4.937000000    -2.436000000
H     3.284000000     5.904000000    -1.840000000
O    -1.888000000     1.429000000    -6.461000000
H    -1.550000000     1.211000000    -5.592000000
H    -1.612000000     2.334000000    -6.605000000
O     4.373000000     3.385000000     0.028000000
H     3.444000000     3.446000000     0.251000000
H     4.499000000     4.039000000    -0.659000000
O    -1.797000000    -6.697000000    -1.154000000
H    -0.990000000    -7.148000000    -0.905000000
H    -2.443000000    -7.396000000    -1.250000000
O     2.155000000    -3.450000000    -3.861000000
H     2.539000000    -3.962000000    -4.574000000
H     1.627000000    -4.080000000    -3.372000000
O    -1.131000000     3.581000000    -3.177000000
H    -1.976000000     3.152000000    -3.316000000
H    -0.967000000     3.489000000    -2.239000000
O     4.913000000     4.532000000     3.141000000
H     5.269000000     3.940000000     3.804000000
H     5.676000000     4.812000000     2.635000000
O     1.549000000    -7.215000000    -3.539000000
H     2.201000000    -7.119000000    -2.845000000
H     0.911000000    -6.522000000    -3.366000000
O     1.960000000     5.934000000    -0.713000000
H     1.850000000     5.242000000    -0.061000000
H     1.073000000     6.259000000    -0.869000000
O     2.016000000     4.220000000     2.840000000
H     2.958000000     4.108000000     2.968000000
H     1.860000000     3.930000000     1.942000000
O    -4.425000000     0.559000000    -0.937000000
H    -4.952000000    -0.180000000    -0.632000000
H    -5.018000000     1.309000000    -0.893000000
O    -0.421000000     6.228000000     0.870000000
H    -0.399000000     5.347000000     0.497000000
H    -1.284000000     6.567000000     0.632000000
O    -0.704000000     3.017000000     2.971000000
H     0.154000000     3.244000000     3.328000000
H    -1.213000000     3.825000000     3.039000000
O    -2.159000000    -5.075000000     5.546000000
H    -2.232000000    -4.486000000     4.795000000
H    -3.061000000    -5.203000000     5.840000000
O     3.294000000     7.273000000     2.356000000
H     2.860000000     6.424000000     2.442000000
H     2.584000000     7.886000000     2.162000000
O    -1.357000000    -0.848000000     2.648000000
H    -0.626000000    -0.592000000     2.086000000
H    -0.959000000    -1.390000000     3.329000000
O     0.669000000     7.830000000     2.718000000
H     0.839000000     7.353000000     3.530000000
H     0.342000000     7.164000000     2.113000000
O     3.090000000    -4.309000000     3.246000000
H     3.648000000    -4.560000000     3.982000000
H     3.300000000    -3.389000000     3.089000000
O     0.148000000     7.924000000    -2.234000000
H     0.564000000     7.279000000    -2.805000000
H    -0.790000000     7.797000000    -2.373000000
O    -2.759000000     1.759000000     1.851000000
H    -2.202000000     2.318000000     2.392000000
H    -2.342000000     0.898000000     1.888000000
O     1.522000000    -3.872000000    -0.688000000
H     2.386000000    -3.610000000    -0.370000000
H     1.015000000    -4.040000000     0.106000000
O    -4.312000000    -4.744000000    -0.193000000
H    -3.621000000    -5.250000000    -0.622000000
H    -4.142000000    -4.851000000     0.743000000
O     0.158000000    -5.027000000    -2.690000000
H     0.637000000    -4.655000000    -1.950000000
H    -0.738000000    -5.128000000    -2.369000000
O     2.529000000     1.764000000    -4.748000000
H     2.122000000     1.237000000    -4.061000000
H     1.800000000     2.229000000    -5.157000000
O    -3.628000000     3.524000000    -0.331000000
H    -2.771000000     3.706000000    -0.717000000
H    -3.509000000     2.697000000     0.136000000
O    -0.169000000    -4.368000000     1.838000000
H     0.195000000    -5.231000000     2.036000000
H    -0.345000000    -3.979000000     2.694000000
O    -0.536000000    -1.901000000     5.000000000
H     0.285000000    -1.844000000     5.488000000
H    -1.173000000    -2.221000000     5.639000000
O     3.825000000    -1.292000000     2.582000000
H     3.611000000    -1.026000000     3.476000000
H     4.581000000    -0.754000000     2.347000000
O     1.180000000     5.923000000     4.976000000
H     1.619000000     5.300000000     4.396000000
H     1.079000000     5.450000000     5.802000000
O     4.174000000    -5.593000000     0.680000000
H     3.665000000    -5.360000000     1.457000000
H     4.520000000    -4.760000000     0.361000000
O    -2.361000000     6.850000000    -3.082000000
H    -2.989000000     6.436000000    -2.490000000
H    -2.904000000     7.309000000    -3.723000000
O     0.628000000    -7.898000000    -0.541000000
H     0.832000000    -8.570000000    -1.192000000
H     1.392000000    -7.321000000    -0.544000000
O    -3.416000000     6.452000000     0.287000000
H    -3.474000000     5.508000000     0.138000000
H    -4.259000000     6.794000000    -0.009000000
O     0.442000000     3.575000000    -5.431000000
H    -0.021000000     3.617000000    -4.595000000
H     0.709000000     4.479000000    -5.602000000
O    -0.828000000     0.990000000    -4.100000000
H    -0.352000000     0.276000000    -3.676000000
H    -0.461000000     1.785000000    -3.714000000
O    -5.156000000     1.554000000     3.069000000
H    -4.266000000     1.438000000     2.737000000
H    -5.518000000     2.267000000     2.543000000
O     1.954000000     0.870000000     4.088000000
H     1.281000000     1.466000000     3.759000000
H     1.667000000     0.649000000     4.974000000
O     3.752000000    -2.917000000     0.210000000
H     3.890000000    -2.493000000     1.057000000
H     4.297000000    -2.419000000    -0.399000000
O     1.442000000    -6.617000000     3.131000000
H     1.931000000    -5.798000000     3.206000000
H     2.081000000    -7.248000000     2.801000000
O     5.082000000     1.000000000     1.106000000
H     4.559000000     1.785000000     0.938000000
H     5.977000000     1.325000000     1.200000000
O    -3.601000000     2.039000000    -3.432000000
H    -3.997000000     1.565000000    -2.702000000
H    -4.096000000     2.856000000    -3.484000000
O    -3.318000000    -0.713000000    -4.559000000
H    -2.422000000    -0.865000000    -4.859000000
H    -3.231000000    -0.058000000    -3.867000000
