158
-3004.92450
C    -0.986000000     0.397000000    -1.125000000
H    -1.832000000     0.707000000    -1.733000000
C    -1.178000000    -0.630000000    -0.198000000
H    -2.128000000    -1.142000000    -0.327000000
C    -0.234000000    -0.985000000     0.748000000
H    -0.313000000    -1.771000000     1.481000000
C     1.052000000    -0.367000000     0.692000000
H     1.703000000    -0.610000000     1.527000000
C     1.274000000     0.670000000    -0.228000000
H     2.241000000     1.147000000    -0.092000000
C     0.278000000     1.115000000    -1.093000000
C     0.558000000     2.307000000    -2.020000000
O    -0.406000000     2.819000000    -2.433000000
O     1.678000000     2.796000000    -2.119000000
O     2.264000000    -1.530000000    -4.063000000
H     2.943000000    -1.681000000    -4.720000000
H     1.780000000    -0.771000000    -4.389000000
O    -4.146000000     0.395000000     3.816000000
H    -3.495000000     0.663000000     3.167000000
H    -3.629000000     0.108000000     4.569000000
O    -4.765000000    -3.611000000    -2.031000000
H    -4.167000000    -3.588000000    -1.284000000
H    -4.401000000    -4.281000000    -2.609000000
O     5.323000000     0.924000000    -5.735000000
H     4.747000000     1.319000000    -5.080000000
H     5.145000000    -0.015000000    -5.675000000
O     3.288000000     2.240000000    -4.292000000
H     2.657000000     2.089000000    -4.995000000
H     2.752000000     2.314000000    -3.502000000
O     3.475000000    -1.811000000    -1.143000000
H     3.201000000    -1.921000000    -2.053000000
H     3.833000000    -0.924000000    -1.106000000
O     4.432000000     5.491000000    -4.430000000
H     3.574000000     5.066000000    -4.425000000
H     5.000000000     4.890000000    -3.948000000
O    -0.876000000    -4.433000000    -2.800000000
H     0.067000000    -4.596000000    -2.798000000
H    -0.968000000    -3.565000000    -3.193000000
O     4.055000000     3.153000000    -0.769000000
H     3.135000000     3.415000000    -0.740000000
H     4.346000000     3.397000000    -1.648000000
O    -3.917000000    -3.294000000     0.954000000
H    -4.300000000    -3.436000000     1.820000000
H    -3.162000000    -3.882000000     0.928000000
O    -0.794000000    -1.837000000    -3.393000000
H    -1.249000000    -1.000000000    -3.486000000
H    -0.119000000    -1.671000000    -2.735000000
O    -2.289000000     4.116000000    -3.517000000
H    -2.729000000     4.573000000    -2.800000000
H    -1.544000000     3.681000000    -3.102000000
O     5.698000000     1.551000000     2.912000000
H     5.212000000     2.283000000     3.291000000
H     6.565000000     1.911000000     2.726000000
O    -0.545000000     5.906000000    -4.394000000
H    -1.322000000     5.375000000    -4.217000000
H    -0.809000000     6.485000000    -5.109000000
O     1.463000000     5.100000000     0.992000000
H     1.878000000     4.325000000     1.370000000
H     2.133000000     5.781000000     1.047000000
O    -5.894000000     2.814000000    -2.294000000
H    -5.834000000     3.214000000    -1.426000000
H    -6.664000000     3.220000000    -2.692000000
O     1.870000000     4.862000000    -3.828000000
H     1.010000000     5.262000000    -3.961000000
H     1.703000000     4.131000000    -3.233000000
O    -0.334000000     5.635000000    -1.280000000
H     0.231000000     5.140000000    -0.687000000
H    -0.031000000     5.397000000    -2.156000000
O    -0.641000000    -3.624000000     6.570000000
H    -0.463000000    -3.120000000     7.364000000
H     0.201000000    -3.660000000     6.116000000
O    -1.825000000     8.192000000    -1.587000000
H    -1.645000000     7.277000000    -1.801000000
H    -2.631000000     8.395000000    -2.061000000
O    -2.809000000    -4.010000000     5.098000000
H    -2.722000000    -4.729000000     4.472000000
H    -1.957000000    -3.965000000     5.532000000
O    -1.962000000     1.242000000     2.408000000
H    -1.811000000     2.157000000     2.171000000
H    -1.368000000     0.747000000     1.843000000
O     4.843000000    -3.888000000     4.117000000
H     4.083000000    -3.477000000     4.530000000
H     4.516000000    -4.204000000     3.275000000
O     0.989000000    -5.151000000     1.312000000
H     1.424000000    -5.818000000     1.843000000
H     0.920000000    -4.391000000     1.890000000
O    -6.448000000    -2.141000000     0.500000000
H    -5.762000000    -2.390000000     1.119000000
H    -6.501000000    -1.188000000     0.572000000
O     5.934000000     4.759000000     0.490000000
H     5.210000000     4.206000000     0.198000000
H     6.560000000     4.149000000     0.881000000
O     1.333000000     4.827000000    -6.956000000
H     0.846000000     5.455000000    -7.489000000
H     1.250000000     5.156000000    -6.061000000
O    -1.682000000    -4.851000000     0.337000000
H    -0.806000000    -5.119000000     0.616000000
H    -1.545000000    -4.427000000    -0.510000000
O     1.444000000     1.192000000    -5.980000000
H     1.403000000     0.338000000    -6.409000000
H     0.580000000     1.301000000    -5.581000000
O     0.081000000    -3.648000000     3.329000000
H     0.041000000    -2.762000000     3.690000000
H    -0.700000000    -4.081000000     3.672000000
O     1.157000000     1.590000000     3.762000000
H     1.249000000     1.339000000     4.681000000
H     1.090000000     2.545000000     3.779000000
O    -0.251000000    -1.164000000     4.180000000
H     0.690000000    -1.003000000     4.110000000
H    -0.652000000    -0.461000000     3.668000000
O     4.751000000    -0.852000000     2.090000000
H     4.973000000     0.007000000     2.450000000
H     4.838000000    -0.744000000     1.143000000
O     2.888000000     3.048000000     2.065000000
H     3.522000000     2.480000000     1.627000000
H     2.330000000     2.448000000     2.559000000
O     2.583000000    -1.316000000     4.017000000
H     3.005000000    -0.877000000     3.278000000
H     3.218000000    -1.248000000     4.730000000
O    -3.210000000     4.911000000    -0.983000000
H    -3.949000000     4.532000000    -0.506000000
H    -2.476000000     4.329000000    -0.789000000
O     2.431000000    -5.343000000    -0.876000000
H     3.354000000    -5.220000000    -0.657000000
H     1.975000000    -5.275000000    -0.037000000
O     3.587000000    -3.373000000     1.465000000
H     3.061000000    -3.082000000     0.720000000
H     4.021000000    -2.580000000     1.776000000
O    -1.217000000     1.514000000    -4.941000000
H    -1.240000000     2.046000000    -4.145000000
H    -1.653000000     2.052000000    -5.601000000
O    -3.607000000     0.370000000    -6.048000000
H    -2.727000000     0.626000000    -5.774000000
H    -4.177000000     1.050000000    -5.690000000
O    -6.479000000     0.613000000     0.419000000
H    -6.715000000     1.151000000     1.174000000
H    -5.759000000     1.088000000     0.002000000
O    -2.065000000    -0.945000000     6.304000000
H    -2.382000000    -1.831000000     6.481000000
H    -1.339000000    -1.069000000     5.692000000
O    -1.035000000     3.719000000     1.535000000
H    -0.597000000     3.786000000     2.383000000
H    -0.350000000     3.913000000     0.895000000
O     5.659000000     3.417000000    -3.319000000
H     6.446000000     3.238000000    -3.832000000
H     5.033000000     2.749000000    -3.600000000
O    -2.193000000    -5.777000000     3.339000000
H    -2.243000000    -5.695000000     2.387000000
H    -1.403000000    -6.297000000     3.493000000
O     2.037000000    -3.665000000     5.862000000
H     1.980000000    -2.919000000     5.265000000
H     2.176000000    -3.273000000     6.724000000
O     5.383000000     0.565000000    -0.749000000
H     5.004000000     1.444000000    -0.735000000
H     6.329000000     0.711000000    -0.746000000
O    -4.773000000     2.422000000    -4.856000000
H    -5.346000000     2.734000000    -4.157000000
H    -3.893000000     2.669000000    -4.573000000
