158
-3037.13887
C    -0.047000000     1.467000000     0.138000000
H    -0.237000000     2.519000000    -0.055000000
C    -1.169000000     0.629000000     0.169000000
H    -2.142000000     1.111000000     0.208000000
C    -0.983000000    -0.779000000     0.098000000
H    -1.913000000    -1.435000000     0.000000000
C     0.315000000    -1.305000000     0.070000000
H     0.504000000    -2.376000000     0.063000000
C     1.422000000    -0.458000000    -0.037000000
H     2.440000000    -0.833000000    -0.103000000
C     1.271000000     0.931000000    -0.014000000
C     2.454000000     1.891000000    -0.200000000
O     2.287000000     3.102000000    -0.224000000
O     3.546000000     1.473000000    -0.390000000
O    -4.767000000     3.356000000    -1.616000000
H    -4.227000000     3.518000000    -0.843000000
H    -4.283000000     3.760000000    -2.336000000
O    -0.905000000    -4.333000000     3.604000000
H    -0.903000000    -3.597000000     4.216000000
H    -0.182000000    -4.889000000     3.894000000
O    -3.351000000     1.214000000     2.646000000
H    -2.448000000     0.900000000     2.584000000
H    -3.773000000     0.610000000     3.257000000
O    -3.189000000    -6.239000000     2.069000000
H    -3.070000000    -5.289000000     2.046000000
H    -3.414000000    -6.430000000     2.980000000
O    -3.229000000    -2.805000000    -3.831000000
H    -3.686000000    -1.993000000    -4.050000000
H    -3.469000000    -2.978000000    -2.921000000
O     0.203000000    -1.375000000    -3.028000000
H     1.032000000    -0.925000000    -3.189000000
H    -0.137000000    -0.971000000    -2.229000000
O     2.434000000     6.644000000    -2.332000000
H     1.972000000     7.370000000    -2.752000000
H     2.568000000     6.936000000    -1.430000000
O     5.833000000    -1.787000000    -3.515000000
H     6.295000000    -2.259000000    -2.823000000
H     5.374000000    -1.081000000    -3.058000000
O    -0.840000000    -3.713000000    -4.172000000
H    -1.731000000    -3.365000000    -4.125000000
H    -0.296000000    -3.032000000    -3.776000000
O    -3.962000000    -1.199000000     4.146000000
H    -4.206000000    -1.368000000     5.056000000
H    -4.660000000    -1.604000000     3.631000000
O    -1.593000000     0.418000000    -4.172000000
H    -1.134000000     1.229000000    -4.389000000
H    -0.900000000    -0.183000000    -3.896000000
O     4.966000000    -0.398000000     0.977000000
H     4.589000000    -1.270000000     0.864000000
H     4.500000000     0.148000000     0.344000000
O     1.862000000    -3.778000000    -2.017000000
H     1.275000000    -3.094000000    -2.337000000
H     2.650000000    -3.688000000    -2.552000000
O     1.332000000     3.723000000    -2.666000000
H     0.777000000     4.489000000    -2.522000000
H     1.685000000     3.516000000    -1.801000000
O     5.003000000     0.345000000    -2.190000000
H     5.745000000     0.863000000    -2.499000000
H     4.675000000     0.826000000    -1.430000000
O     3.867000000     5.120000000     0.810000000
H     4.537000000     4.972000000     1.478000000
H     3.322000000     4.334000000     0.839000000
O    -6.514000000    -0.184000000     0.233000000
H    -6.096000000    -0.379000000     1.072000000
H    -7.444000000    -0.094000000     0.444000000
O     0.687000000     4.784000000     0.994000000
H     1.260000000     4.224000000     0.471000000
H    -0.187000000     4.637000000     0.632000000
O     2.829000000    -4.335000000     3.287000000
H     2.349000000    -4.821000000     2.616000000
H     3.458000000    -4.967000000     3.635000000
O     4.228000000     7.623000000     2.365000000
H     4.237000000     8.375000000     1.773000000
H     4.073000000     6.871000000     1.794000000
O     5.192000000     3.347000000     2.375000000
H     5.443000000     3.602000000     3.263000000
H     4.428000000     2.783000000     2.495000000
O    -2.486000000    -3.849000000     1.383000000
H    -1.983000000    -4.104000000     2.157000000
H    -1.863000000    -3.918000000     0.660000000
O    -1.569000000    -2.190000000     5.332000000
H    -2.021000000    -1.737000000     4.621000000
H    -1.069000000    -1.503000000     5.773000000
O     4.444000000     4.601000000    -2.746000000
H     4.283000000     3.991000000    -2.026000000
H     3.845000000     5.329000000    -2.580000000
O    -4.015000000    -3.354000000    -1.150000000
H    -4.347000000    -4.252000000    -1.154000000
H    -3.525000000    -3.284000000    -0.331000000
O     6.889000000     5.523000000    -0.868000000
H     6.021000000     5.121000000    -0.866000000
H     7.472000000     4.833000000    -1.186000000
O     0.248000000     5.189000000     3.688000000
H     1.004000000     5.694000000     3.987000000
H     0.448000000     4.973000000     2.778000000
O     7.518000000     1.082000000    -2.765000000
H     7.457000000     1.068000000    -3.720000000
H     8.085000000     0.341000000    -2.551000000
O     3.839000000    -3.005000000     0.497000000
H     3.678000000    -3.418000000    -0.352000000
H     3.799000000    -3.727000000     1.125000000
O     2.732000000    -0.384000000    -3.297000000
H     3.215000000    -0.603000000    -4.094000000
H     3.401000000    -0.072000000    -2.689000000
O    -1.894000000     4.725000000    -1.018000000
H    -2.395000000     4.420000000    -0.261000000
H    -2.410000000     5.450000000    -1.370000000
O     7.478000000    -0.494000000     2.105000000
H     7.488000000    -1.405000000     2.398000000
H     6.561000000    -0.321000000     1.893000000
O     2.191000000    -1.787000000     3.210000000
H     2.249000000    -2.741000000     3.256000000
H     1.741000000    -1.614000000     2.383000000
O    -2.037000000     3.106000000    -3.522000000
H    -2.036000000     2.254000000    -3.087000000
H    -1.984000000     3.741000000    -2.807000000
O    -3.545000000     3.687000000     0.905000000
H    -3.722000000     4.142000000     1.728000000
H    -3.760000000     2.772000000     1.087000000
O    -0.779000000    -4.315000000    -0.728000000
H     0.155000000    -4.266000000    -0.935000000
H    -1.170000000    -4.742000000    -1.490000000
O     5.400000000    -1.808000000     3.978000000
H     5.617000000    -0.896000000     4.173000000
H     4.585000000    -1.759000000     3.478000000
O     1.682000000     5.392000000    -4.811000000
H     0.818000000     5.804000000    -4.794000000
H     1.742000000     4.926000000    -3.978000000
O     1.226000000     1.777000000    -4.467000000
H     1.239000000     2.502000000    -3.841000000
H     1.905000000     1.179000000    -4.154000000
O    -6.412000000    -2.238000000     3.246000000
H    -6.860000000    -2.593000000     2.478000000
H    -6.611000000    -2.859000000     3.947000000
O     2.359000000     2.007000000     2.827000000
H     1.787000000     2.328000000     2.130000000
H     1.774000000     1.534000000     3.418000000
O    -1.508000000    -5.844000000    -2.941000000
H    -1.297000000    -5.186000000    -3.603000000
H    -2.423000000    -6.069000000    -3.110000000
O     6.608000000     2.535000000     0.117000000
H     5.846000000     2.017000000    -0.142000000
H     6.333000000     2.981000000     0.918000000
O    -5.823000000    -5.174000000     1.498000000
H    -4.947000000    -5.353000000     1.156000000
H    -5.772000000    -4.279000000     1.832000000
O     1.677000000     7.486000000     0.091000000
H     1.388000000     8.135000000     0.732000000
H     1.499000000     6.643000000     0.507000000
O     1.870000000    -6.360000000    -0.443000000
H     2.791000000    -6.418000000    -0.190000000
H     1.874000000    -5.842000000    -1.248000000
O    -5.465000000     0.812000000    -2.106000000
H    -5.778000000     0.401000000    -1.300000000
H    -5.395000000     1.742000000    -1.890000000
O    -4.215000000    -0.282000000    -4.455000000
H    -3.333000000     0.079000000    -4.535000000
H    -4.617000000     0.221000000    -3.747000000
