158
-3049.25095
C    -0.542000000     1.316000000    -0.347000000
H    -1.094000000     2.247000000    -0.448000000
C    -1.242000000     0.127000000    -0.215000000
H    -2.316000000     0.108000000    -0.380000000
C    -0.592000000    -1.032000000    -0.028000000
H    -1.210000000    -1.926000000     0.145000000
C     0.745000000    -1.090000000     0.143000000
H     1.107000000    -2.110000000     0.245000000
C     1.463000000     0.052000000     0.053000000
H     2.530000000    -0.080000000     0.208000000
C     0.841000000     1.353000000    -0.171000000
C     1.624000000     2.658000000    -0.116000000
O     1.005000000     3.688000000     0.002000000
O     2.827000000     2.700000000    -0.037000000
O    -2.227000000    -2.972000000     3.033000000
H    -2.473000000    -2.052000000     2.932000000
H    -1.325000000    -2.946000000     3.351000000
O    -2.818000000    -2.783000000    -2.649000000
H    -3.065000000    -1.975000000    -3.098000000
H    -3.292000000    -2.749000000    -1.818000000
O    -0.198000000    -2.152000000    -2.939000000
H    -1.117000000    -2.421000000    -2.936000000
H    -0.110000000    -1.593000000    -2.167000000
O    -0.597000000     7.203000000    -1.098000000
H    -1.121000000     6.963000000    -1.862000000
H    -0.975000000     8.030000000    -0.798000000
O    -0.758000000    -4.648000000    -4.038000000
H    -0.081000000    -4.008000000    -3.816000000
H    -1.570000000    -4.140000000    -4.057000000
O    -2.125000000     1.466000000    -4.364000000
H    -2.008000000     2.415000000    -4.413000000
H    -1.238000000     1.112000000    -4.429000000
O     4.563000000     0.886000000    -1.329000000
H     3.924000000     0.261000000    -1.671000000
H     4.044000000     1.496000000    -0.805000000
O    -0.033000000    -5.608000000    -0.762000000
H     0.887000000    -5.373000000    -0.642000000
H    -0.023000000    -6.277000000    -1.446000000
O    -0.419000000     3.850000000    -2.386000000
H    -1.350000000     3.642000000    -2.300000000
H    -0.058000000     3.692000000    -1.513000000
O     3.732000000     4.439000000    -2.097000000
H     4.288000000     3.673000000    -1.956000000
H     2.944000000     4.261000000    -1.584000000
O     3.684000000     5.007000000     1.394000000
H     3.852000000     4.719000000     2.291000000
H     3.354000000     4.226000000     0.949000000
O    -4.861000000    -0.147000000     0.264000000
H    -5.279000000    -0.038000000     1.118000000
H    -4.666000000    -1.083000000     0.211000000
O    -0.309000000     5.705000000     1.038000000
H     0.111000000     4.981000000     0.574000000
H    -0.358000000     6.408000000     0.391000000
O     1.310000000    -2.946000000     4.724000000
H     0.652000000    -3.053000000     5.411000000
H     1.266000000    -2.019000000     4.493000000
O     1.649000000     8.125000000     2.036000000
H     1.489000000     9.068000000     2.038000000
H     2.063000000     7.954000000     1.189000000
O     4.344000000     4.217000000     4.008000000
H     5.064000000     4.669000000     4.448000000
H     3.841000000     3.820000000     4.720000000
O    -3.078000000    -5.457000000     2.542000000
H    -3.076000000    -4.528000000     2.774000000
H    -2.671000000    -5.488000000     1.676000000
O    -1.491000000    -0.348000000     3.142000000
H    -1.625000000     0.372000000     2.525000000
H    -0.542000000    -0.468000000     3.166000000
O     1.016000000     4.728000000     3.180000000
H     1.427000000     4.069000000     2.621000000
H     0.468000000     5.240000000     2.584000000
O     5.862000000     1.971000000     1.257000000
H     6.062000000     1.697000000     0.362000000
H     6.241000000     2.847000000     1.329000000
O     2.230000000     7.434000000    -0.533000000
H     2.125000000     6.538000000    -0.213000000
H     1.679000000     7.476000000    -1.314000000
O    -3.068000000     0.586000000     5.016000000
H    -2.478000000     0.244000000     4.344000000
H    -3.911000000     0.175000000     4.827000000
O     4.370000000    -3.869000000     2.417000000
H     4.795000000    -3.639000000     1.590000000
H     4.767000000    -4.703000000     2.667000000
O    -4.231000000    -2.718000000    -0.132000000
H    -5.099000000    -3.116000000    -0.071000000
H    -3.673000000    -3.277000000     0.410000000
O     1.159000000     2.035000000    -3.616000000
H     0.617000000     2.690000000    -3.176000000
H     1.909000000     2.529000000    -3.948000000
O    -2.836000000     4.016000000     0.391000000
H    -2.904000000     3.479000000     1.180000000
H    -2.122000000     4.626000000     0.576000000
O     5.404000000     6.523000000    -0.714000000
H     4.894000000     5.940000000    -0.152000000
H     5.221000000     6.219000000    -1.604000000
O    -0.617000000    -6.462000000     4.067000000
H    -1.319000000    -6.369000000     3.423000000
H     0.189000000    -6.413000000     3.553000000
O     2.683000000    -5.050000000    -0.459000000
H     3.448000000    -4.796000000     0.058000000
H     2.809000000    -4.616000000    -1.302000000
O     2.487000000    -0.568000000    -3.269000000
H     1.680000000    -1.082000000    -3.311000000
H     2.192000000     0.325000000    -3.089000000
O    -3.366000000     3.579000000    -2.425000000
H    -3.994000000     2.864000000    -2.528000000
H    -3.237000000     3.650000000    -1.479000000
O    -3.038000000     2.286000000     2.491000000
H    -3.215000000     2.844000000     3.249000000
H    -3.875000000     1.859000000     2.308000000
O     1.246000000    -0.072000000     4.150000000
H     1.735000000     0.611000000     3.691000000
H     0.842000000     0.379000000     4.891000000
O     6.711000000    -1.832000000     1.600000000
H     5.799000000    -1.630000000     1.808000000
H     7.217000000    -1.180000000     2.085000000
O     0.829000000    -6.913000000     1.372000000
H     0.345000000    -6.687000000     0.578000000
H     1.193000000    -6.082000000     1.675000000
O    -5.526000000     4.213000000     1.108000000
H    -4.621000000     4.117000000     0.813000000
H    -5.685000000     3.438000000     1.647000000
O    -4.570000000    -4.964000000    -3.279000000
H    -4.100000000    -4.137000000    -3.385000000
H    -5.324000000    -4.888000000    -3.864000000
O    -2.531000000    -4.884000000     0.006000000
H    -1.635000000    -5.159000000    -0.190000000
H    -3.051000000    -5.233000000    -0.718000000
O     4.567000000    -0.168000000     2.459000000
H     3.702000000     0.127000000     2.176000000
H     5.179000000     0.405000000     1.998000000
O     0.997000000     6.237000000    -3.942000000
H     0.501000000     5.472000000    -3.647000000
H     0.355000000     6.947000000    -3.954000000
O     2.675000000     2.195000000     2.877000000
H     3.310000000     2.703000000     3.381000000
H     2.842000000     2.438000000     1.966000000
O     5.460000000    -3.772000000     0.011000000
H     6.197000000    -3.203000000     0.232000000
H     5.135000000    -3.432000000    -0.822000000
O    -3.598000000    -6.869000000    -1.730000000
H    -3.981000000    -6.082000000    -2.118000000
H    -3.838000000    -7.574000000    -2.331000000
O     7.447000000     4.434000000     0.929000000
H     7.726000000     4.944000000     1.689000000
H     6.708000000     4.925000000     0.569000000
O     1.849000000    -4.929000000     2.947000000
H     2.753000000    -4.774000000     2.672000000
H     1.675000000    -4.246000000     3.595000000
O     7.278000000     1.413000000    -1.223000000
H     7.703000000     0.649000000    -1.611000000
H     6.346000000     1.285000000    -1.401000000
O    -4.956000000     1.204000000    -2.017000000
H    -4.835000000     0.632000000    -1.258000000
H    -5.655000000     1.803000000    -1.756000000
O    -4.072000000    -0.727000000    -3.898000000
H    -3.305000000    -0.157000000    -3.936000000
H    -4.746000000    -0.195000000    -3.475000000
