158
-3037.27657
C    -1.057000000     0.931000000    -0.587000000
H    -1.894000000     1.559000000    -0.882000000
C    -1.225000000    -0.456000000    -0.213000000
H    -2.178000000    -0.973000000    -0.299000000
C    -0.164000000    -1.154000000     0.320000000
H    -0.265000000    -2.179000000     0.566000000
C     1.090000000    -0.564000000     0.528000000
H     1.847000000    -1.166000000     1.023000000
C     1.244000000     0.747000000     0.123000000
H     2.197000000     1.249000000     0.267000000
C     0.197000000     1.511000000    -0.422000000
C     0.326000000     3.006000000    -0.630000000
O    -0.591000000     3.659000000    -0.941000000
O     1.402000000     3.590000000    -0.451000000
O     3.680000000    -1.358000000    -1.415000000
H     3.019000000    -0.812000000    -1.840000000
H     3.885000000    -0.896000000    -0.602000000
O    -6.036000000    -3.911000000     3.150000000
H    -6.815000000    -3.634000000     2.668000000
H    -5.318000000    -3.803000000     2.527000000
O    -3.530000000    -1.008000000     3.012000000
H    -2.719000000    -0.999000000     3.521000000
H    -3.863000000    -0.112000000     3.076000000
O     3.696000000    -4.021000000    -1.724000000
H     3.384000000    -4.492000000    -2.497000000
H     3.457000000    -3.109000000    -1.887000000
O    -6.570000000    -0.875000000     0.864000000
H    -7.017000000    -1.380000000     1.543000000
H    -5.865000000    -0.422000000     1.326000000
O     4.822000000     1.262000000    -3.197000000
H     3.887000000     1.269000000    -3.402000000
H     5.043000000     0.334000000    -3.119000000
O    -2.213000000    -4.557000000    -4.472000000
H    -2.627000000    -4.980000000    -3.721000000
H    -2.890000000    -3.979000000    -4.825000000
O     2.038000000     1.499000000    -3.255000000
H     1.098000000     1.335000000    -3.184000000
H     2.101000000     2.378000000    -3.628000000
O     6.347000000    -2.793000000    -0.876000000
H     5.519000000    -2.946000000    -1.331000000
H     6.093000000    -2.391000000    -0.045000000
O     4.717000000     4.093000000    -2.758000000
H     4.519000000     4.481000000    -3.611000000
H     4.850000000     3.164000000    -2.943000000
O     0.732000000    -3.752000000    -3.462000000
H     0.680000000    -2.808000000    -3.611000000
H    -0.018000000    -4.112000000    -3.935000000
O     3.821000000     4.594000000    -0.040000000
H     3.036000000     4.048000000    -0.027000000
H     4.167000000     4.496000000    -0.927000000
O    -1.660000000    -4.682000000    -0.061000000
H    -1.515000000    -4.730000000     0.884000000
H    -0.819000000    -4.399000000    -0.418000000
O    -0.033000000    -1.194000000    -3.086000000
H    -0.837000000    -0.950000000    -3.544000000
H    -0.237000000    -1.067000000    -2.160000000
O    -2.822000000     4.912000000    -1.272000000
H    -3.113000000     5.290000000    -0.442000000
H    -1.980000000     4.504000000    -1.067000000
O     1.137000000     5.962000000    -1.552000000
H     1.005000000     5.059000000    -1.263000000
H     0.281000000     6.236000000    -1.881000000
O     1.923000000     3.912000000     2.811000000
H     2.435000000     3.870000000     3.618000000
H     2.576000000     3.915000000     2.112000000
O    -6.720000000     1.842000000    -1.520000000
H    -5.808000000     1.858000000    -1.229000000
H    -7.076000000     2.685000000    -1.238000000
O     1.696000000     4.122000000    -3.835000000
H     1.078000000     4.774000000    -4.165000000
H     2.091000000     4.533000000    -3.066000000
O    -0.238000000     5.181000000     1.727000000
H     0.531000000     4.763000000     2.115000000
H    -0.311000000     4.787000000     0.858000000
O    -0.442000000     8.086000000     1.172000000
H    -1.370000000     8.014000000     1.397000000
H    -0.082000000     7.219000000     1.358000000
O     4.889000000     6.944000000     1.245000000
H     4.432000000     7.767000000     1.077000000
H     4.227000000     6.268000000     1.099000000
O    -3.840000000    -5.579000000    -2.242000000
H    -4.118000000    -5.034000000    -1.506000000
H    -4.556000000    -6.203000000    -2.361000000
O    -0.752000000    -0.548000000     3.517000000
H    -0.436000000     0.355000000     3.494000000
H    -0.626000000    -0.868000000     2.623000000
O    -1.249000000     7.193000000    -3.347000000
H    -1.504000000     6.807000000    -4.185000000
H    -2.053000000     7.190000000    -2.828000000
O    -4.264000000     2.461000000    -0.674000000
H    -3.835000000     2.087000000     0.096000000
H    -3.713000000     3.204000000    -0.918000000
O     1.755000000    -5.302000000     3.004000000
H     2.347000000    -4.702000000     3.459000000
H     0.958000000    -4.791000000     2.864000000
O    -3.965000000    -3.171000000     1.023000000
H    -3.097000000    -3.480000000     0.763000000
H    -3.842000000    -2.830000000     1.909000000
O    -1.908000000    -7.528000000    -1.510000000
H    -1.237000000    -7.161000000    -0.935000000
H    -2.342000000    -6.764000000    -1.890000000
O     3.246000000     7.641000000    -2.261000000
H     2.613000000     7.036000000    -1.873000000
H     3.658000000     8.069000000    -1.511000000
O     1.346000000    -4.926000000    -0.940000000
H     2.217000000    -4.530000000    -0.906000000
H     1.017000000    -4.708000000    -1.812000000
O    -2.905000000     2.603000000     2.304000000
H    -2.649000000     2.137000000     3.100000000
H    -2.078000000     2.885000000     1.914000000
O    -0.755000000    -4.342000000     2.830000000
H    -1.240000000    -5.167000000     2.844000000
H    -1.085000000    -3.858000000     3.588000000
O    -0.179000000    -2.751000000     5.260000000
H     0.686000000    -2.800000000     5.668000000
H    -0.134000000    -1.977000000     4.697000000
O    -5.426000000    -2.313000000    -3.573000000
H    -5.296000000    -2.633000000    -2.680000000
H    -6.234000000    -1.802000000    -3.529000000
O     3.670000000     0.251000000     3.280000000
H     3.699000000     1.207000000     3.324000000
H     3.724000000     0.053000000     2.345000000
O    -3.725000000     7.145000000    -2.307000000
H    -3.558000000     6.259000000    -1.985000000
H    -4.202000000     7.015000000    -3.127000000
O    -0.051000000    -6.968000000     0.448000000
H     0.172000000    -7.090000000     1.371000000
H     0.404000000    -6.164000000     0.197000000
O    -4.115000000     5.820000000     0.965000000
H    -4.081000000     6.069000000     1.888000000
H    -4.609000000     6.525000000     0.545000000
O     4.280000000    -1.507000000     5.079000000
H     4.200000000    -0.760000000     4.485000000
H     4.956000000    -1.246000000     5.704000000
O    -0.950000000     2.350000000    -3.717000000
H    -0.575000000     2.875000000    -3.009000000
H    -1.105000000     2.977000000    -4.424000000
O    -2.947000000     0.711000000    -4.621000000
H    -3.587000000     1.099000000    -4.024000000
H    -2.152000000     1.227000000    -4.488000000
O    -0.256000000     2.291000000     3.310000000
H    -0.373000000     2.519000000     4.232000000
H     0.549000000     2.740000000     3.052000000
O     5.419000000    -2.857000000     2.195000000
H     6.325000000    -2.623000000     1.991000000
H     5.260000000    -2.469000000     3.056000000
O    -2.619000000    -6.260000000     2.834000000
H    -3.346000000    -6.775000000     2.482000000
H    -1.952000000    -6.909000000     3.058000000
O     4.874000000     1.495000000     0.879000000
H     4.781000000     2.296000000     0.365000000
H     5.802000000     1.466000000     1.112000000
O    -4.710000000     2.782000000    -3.391000000
H    -5.371000000     2.752000000    -2.700000000
H    -3.953000000     3.203000000    -2.982000000
O    -5.691000000    -2.683000000    -0.976000000
H    -6.056000000    -1.912000000    -0.542000000
H    -5.216000000    -3.145000000    -0.286000000
