158
-3019.41295
C    -0.888000000    -0.663000000    -1.020000000
H    -1.440000000    -1.286000000    -1.719000000
C    -0.909000000    -0.920000000     0.360000000
H    -1.662000000    -1.569000000     0.800000000
C    -0.087000000    -0.216000000     1.202000000
H    -0.196000000    -0.323000000     2.281000000
C     0.879000000     0.603000000     0.719000000
H     1.562000000     1.125000000     1.384000000
C     0.827000000     0.926000000    -0.644000000
H     1.534000000     1.677000000    -0.987000000
C    -0.004000000     0.230000000    -1.567000000
C     0.171000000     0.615000000    -3.057000000
O    -0.698000000     0.271000000    -3.868000000
O     1.174000000     1.145000000    -3.487000000
O    -4.488000000    -0.433000000     1.636000000
H    -4.691000000    -0.086000000     2.505000000
H    -4.079000000     0.300000000     1.175000000
O    -3.019000000    -2.200000000     3.993000000
H    -3.146000000    -1.252000000     4.040000000
H    -3.861000000    -2.568000000     4.263000000
O     4.748000000     0.632000000     2.529000000
H     4.771000000     0.432000000     3.465000000
H     4.928000000     1.571000000     2.481000000
O     0.813000000     2.164000000    -7.521000000
H     0.310000000     2.763000000    -8.072000000
H     0.391000000     2.215000000    -6.663000000
O    -0.575000000     5.589000000     1.128000000
H    -0.159000000     5.469000000     0.275000000
H    -1.021000000     6.434000000     1.061000000
O    -3.551000000    -1.837000000    -3.520000000
H    -4.453000000    -1.782000000    -3.833000000
H    -3.631000000    -1.898000000    -2.568000000
O    -1.149000000    -5.706000000    -4.071000000
H    -1.793000000    -5.839000000    -3.375000000
H    -1.316000000    -4.818000000    -4.385000000
O     1.542000000     2.516000000     4.400000000
H     0.927000000     3.189000000     4.106000000
H     2.264000000     2.562000000     3.773000000
O     4.177000000     2.506000000    -4.672000000
H     4.635000000     2.070000000    -3.953000000
H     3.678000000     1.808000000    -5.097000000
O    -1.397000000    -1.728000000     8.122000000
H    -1.296000000    -2.184000000     7.287000000
H    -1.834000000    -0.907000000     7.896000000
O     5.652000000     1.364000000    -2.724000000
H     5.934000000     0.587000000    -3.207000000
H     5.104000000     1.020000000    -2.017000000
O    -1.478000000    -3.702000000     5.832000000
H    -2.080000000    -3.259000000     5.234000000
H    -0.735000000    -3.952000000     5.282000000
O    -1.629000000    -0.751000000    -6.210000000
H    -0.864000000    -0.890000000    -6.768000000
H    -1.265000000    -0.496000000    -5.363000000
O     2.413000000     5.478000000     1.580000000
H     2.067000000     5.318000000     0.702000000
H     2.017000000     6.307000000     1.847000000
O    -5.119000000    -1.731000000    -0.864000000
H    -4.705000000    -1.497000000    -0.033000000
H    -6.056000000    -1.740000000    -0.672000000
O     5.688000000     4.082000000    -1.831000000
H     5.250000000     3.275000000    -2.099000000
H     6.504000000     3.788000000    -1.426000000
O     0.085000000     5.030000000     4.202000000
H     0.487000000     5.869000000     3.977000000
H    -0.069000000     4.605000000     3.358000000
O    -2.639000000     2.244000000    -2.129000000
H    -2.095000000     2.163000000    -2.912000000
H    -2.488000000     3.138000000    -1.824000000
O     5.053000000     4.398000000     1.536000000
H     4.902000000     4.392000000     2.481000000
H     4.283000000     4.836000000     1.173000000
O     1.468000000    -4.536000000     0.767000000
H     0.758000000    -4.306000000     1.366000000
H     1.066000000    -5.133000000     0.137000000
O    -2.426000000     0.546000000     7.034000000
H    -2.170000000     0.239000000     6.164000000
H    -3.227000000     1.048000000     6.885000000
O    -0.434000000    -3.675000000     2.849000000
H     0.213000000    -3.071000000     3.212000000
H    -1.266000000    -3.207000000     2.924000000
O    -3.034000000     0.601000000     4.286000000
H    -2.676000000     1.073000000     3.535000000
H    -3.959000000     0.846000000     4.304000000
O    -3.916000000    -5.011000000     0.292000000
H    -4.688000000    -4.757000000     0.797000000
H    -3.209000000    -4.474000000     0.649000000
O     1.255000000     5.376000000    -0.981000000
H     1.139000000     6.163000000    -1.514000000
H     1.852000000     4.828000000    -1.490000000
O     3.406000000     1.528000000    -7.700000000
H     3.411000000     1.306000000    -8.631000000
H     2.591000000     2.014000000    -7.574000000
O    -3.852000000     1.912000000     0.301000000
H    -3.445000000     1.830000000    -0.561000000
H    -4.765000000     2.134000000     0.115000000
O     1.855000000    -0.779000000    -5.539000000
H     1.593000000     0.016000000    -5.075000000
H     1.029000000    -1.190000000    -5.794000000
O     0.377000000    -0.888000000    -8.056000000
H     1.096000000    -0.393000000    -7.664000000
H     0.105000000    -0.362000000    -8.808000000
O    -1.887000000    -3.245000000    -4.996000000
H    -2.476000000    -2.717000000    -4.457000000
H    -1.371000000    -2.603000000    -5.484000000
O     5.234000000    -0.932000000    -4.391000000
H     4.507000000    -0.888000000    -5.013000000
H     5.306000000    -1.861000000    -4.172000000
O    -0.338000000     3.010000000     2.067000000
H    -0.375000000     3.836000000     1.585000000
H    -1.242000000     2.697000000     2.076000000
O     3.841000000     0.180000000    -0.989000000
H     3.388000000    -0.661000000    -0.924000000
H     3.388000000     0.744000000    -0.362000000
O     0.174000000    -6.308000000     2.975000000
H     0.579000000    -6.427000000     3.834000000
H    -0.118000000    -5.397000000     2.972000000
O    -0.336000000     4.720000000    -3.584000000
H    -0.720000000     4.123000000    -4.227000000
H     0.469000000     4.285000000    -3.304000000
O    -4.282000000    -1.296000000    -7.046000000
H    -4.726000000    -1.536000000    -6.233000000
H    -3.357000000    -1.474000000    -6.874000000
O    -3.091000000     1.646000000    -6.683000000
H    -2.883000000     0.713000000    -6.717000000
H    -3.766000000     1.717000000    -6.008000000
O     3.404000000    -3.203000000     2.233000000
H     2.797000000    -3.825000000     1.831000000
H     3.811000000    -2.755000000     1.492000000
O     6.374000000    -1.316000000     1.157000000
H     5.699000000    -0.702000000     1.445000000
H     6.968000000    -1.387000000     1.904000000
O     4.728000000     3.038000000     4.166000000
H     4.895000000     2.538000000     4.966000000
H     4.419000000     3.889000000     4.476000000
O     2.029000000    -1.974000000    -0.333000000
H     2.026000000    -2.669000000     0.325000000
H     1.222000000    -1.485000000    -0.169000000
O    -1.315000000     2.588000000    -4.828000000
H    -1.991000000     2.477000000    -5.497000000
H    -1.204000000     1.715000000    -4.452000000
O     2.916000000    -1.434000000     7.909000000
H     3.216000000    -1.025000000     8.720000000
H     2.775000000    -0.701000000     7.309000000
O     2.568000000     0.305000000     5.585000000
H     3.429000000     0.647000000     5.827000000
H     2.119000000     1.048000000     5.184000000
O     2.135000000     3.505000000    -2.821000000
H     2.724000000     3.589000000    -3.571000000
H     1.773000000     2.622000000    -2.900000000
O     1.385000000    -1.927000000     4.060000000
H     1.622000000    -1.240000000     4.683000000
H     2.207000000    -2.149000000     3.624000000
O     2.402000000    -3.808000000    -2.171000000
H     2.000000000    -3.147000000    -1.608000000
H     2.970000000    -4.309000000    -1.586000000
O    -4.576000000     2.095000000    -4.092000000
H    -3.982000000     1.845000000    -3.384000000
H    -5.215000000     2.672000000    -3.675000000
