158
-3005.71891
C    -0.900000000     0.478000000    -1.053000000
H    -1.611000000     0.671000000    -1.853000000
C    -1.300000000    -0.334000000     0.008000000
H    -2.336000000    -0.656000000     0.083000000
C    -0.360000000    -0.531000000     1.060000000
H    -0.666000000    -1.065000000     2.017000000
C     0.956000000    -0.126000000     0.961000000
H     1.670000000    -0.301000000     1.761000000
C     1.273000000     0.652000000    -0.160000000
H     2.318000000     0.934000000    -0.259000000
C     0.373000000     0.921000000    -1.244000000
C     0.818000000     1.479000000    -2.544000000
O     0.067000000     2.236000000    -3.202000000
O     1.908000000     1.299000000    -2.938000000
O    -1.587000000    -5.004000000    -1.041000000
H    -1.625000000    -5.118000000    -0.091000000
H    -1.105000000    -5.769000000    -1.355000000
O    -2.906000000     1.310000000     2.071000000
H    -3.340000000     0.562000000     2.481000000
H    -2.036000000     0.986000000     1.840000000
O    -4.688000000    -1.959000000     6.933000000
H    -5.520000000    -2.419000000     6.827000000
H    -4.393000000    -1.787000000     6.038000000
O    -4.042000000    -3.721000000    -2.414000000
H    -3.236000000    -4.099000000    -2.063000000
H    -4.275000000    -3.032000000    -1.792000000
O    -1.649000000     6.907000000    -2.483000000
H    -1.144000000     6.195000000    -2.877000000
H    -2.502000000     6.518000000    -2.291000000
O     1.416000000     3.116000000     3.303000000
H     0.691000000     2.767000000     3.822000000
H     0.993000000     3.626000000     2.612000000
O    -6.088000000    -1.644000000     3.949000000
H    -6.844000000    -1.393000000     3.418000000
H    -6.464000000    -2.119000000     4.690000000
O    -3.834000000    -1.748000000     2.225000000
H    -3.179000000    -1.910000000     2.905000000
H    -4.674000000    -1.859000000     2.671000000
O    -3.803000000    -0.785000000    -5.375000000
H    -3.495000000    -1.690000000    -5.426000000
H    -3.006000000    -0.267000000    -5.259000000
O     2.831000000    -1.091000000    -2.558000000
H     2.002000000    -1.421000000    -2.212000000
H     2.655000000    -0.175000000    -2.770000000
O     6.654000000    -0.680000000     2.733000000
H     6.316000000    -0.228000000     1.960000000
H     6.260000000    -0.217000000     3.472000000
O     1.776000000     0.415000000     7.122000000
H     1.733000000    -0.541000000     7.148000000
H     2.122000000     0.615000000     6.252000000
O     5.714000000     2.626000000    -2.693000000
H     6.201000000     2.842000000    -3.488000000
H     5.721000000     1.669000000    -2.661000000
O     1.959000000    -2.765000000    -5.491000000
H     1.955000000    -2.271000000    -6.311000000
H     2.814000000    -2.579000000    -5.103000000
O     1.735000000    -2.244000000     7.435000000
H     1.256000000    -2.906000000     6.936000000
H     2.585000000    -2.185000000     6.998000000
O    -1.021000000     0.620000000    -5.452000000
H    -0.829000000     1.245000000    -4.753000000
H    -0.990000000    -0.235000000    -5.023000000
O     2.661000000     0.395000000    -5.449000000
H     1.816000000     0.371000000    -5.899000000
H     2.483000000     0.858000000    -4.630000000
O    -4.963000000    -2.103000000    -0.401000000
H    -4.626000000    -1.858000000     0.460000000
H    -5.782000000    -2.562000000    -0.216000000
O     5.399000000     4.905000000    -1.208000000
H     5.585000000     3.999000000    -1.453000000
H     4.887000000     4.836000000    -0.403000000
O    -1.709000000     4.221000000    -0.345000000
H    -1.095000000     4.153000000    -1.076000000
H    -2.562000000     4.020000000    -0.730000000
O     1.256000000    -4.404000000     5.622000000
H     2.064000000    -4.912000000     5.549000000
H     0.740000000    -4.664000000     4.859000000
O     3.782000000     2.813000000     2.202000000
H     2.883000000     2.885000000     2.522000000
H     4.324000000     3.049000000     2.955000000
O    -1.499000000    -5.559000000     1.586000000
H    -1.888000000    -4.860000000     2.111000000
H    -1.867000000    -6.364000000     1.950000000
O    -1.401000000     0.630000000     7.137000000
H    -1.885000000     0.118000000     7.785000000
H    -1.373000000     1.514000000     7.502000000
O    -1.061000000     0.764000000     4.438000000
H    -1.098000000     1.692000000     4.206000000
H    -1.111000000     0.753000000     5.393000000
O     0.253000000     4.729000000    -3.273000000
H     0.216000000     3.774000000    -3.306000000
H     1.012000000     4.921000000    -2.721000000
O     2.288000000    -4.894000000    -1.955000000
H     2.753000000    -4.685000000    -1.145000000
H     1.684000000    -4.162000000    -2.080000000
O    -2.287000000    -1.884000000     4.927000000
H    -1.796000000    -2.338000000     5.611000000
H    -1.808000000    -1.066000000     4.792000000
O     0.080000000    -2.671000000    -1.443000000
H    -0.028000000    -2.036000000    -0.735000000
H    -0.515000000    -3.386000000    -1.217000000
O    -6.941000000    -0.245000000    -1.415000000
H    -6.381000000    -0.966000000    -1.129000000
H    -6.418000000     0.541000000    -1.257000000
O     3.824000000     2.527000000    -6.953000000
H     2.884000000     2.686000000    -7.029000000
H     3.922000000     1.588000000    -7.112000000
O     1.048000000     2.772000000    -6.924000000
H     0.747000000     3.671000000    -6.793000000
H     0.693000000     2.289000000    -6.178000000
O    -0.260000000    -1.667000000    -4.144000000
H     0.633000000    -1.984000000    -4.282000000
H    -0.476000000    -1.942000000    -3.253000000
O     6.188000000    -0.079000000    -2.720000000
H     7.006000000    -0.474000000    -3.021000000
H     5.789000000    -0.748000000    -2.163000000
O    -2.435000000     3.897000000     2.244000000
H    -2.025000000     4.182000000     1.428000000
H    -2.672000000     2.983000000     2.087000000
O     5.644000000     1.148000000     0.933000000
H     4.908000000     1.647000000     1.288000000
H     6.306000000     1.809000000     0.731000000
O     3.841000000    -1.898000000     5.210000000
H     4.407000000    -2.617000000     5.492000000
H     3.321000000    -2.268000000     4.496000000
O     4.592000000    -2.065000000    -4.753000000
H     4.798000000    -2.236000000    -3.834000000
H     4.409000000    -1.126000000    -4.786000000
O     3.490000000     4.965000000     0.576000000
H     3.127000000     5.563000000     1.229000000
H     3.684000000     4.165000000     1.066000000
O     2.992000000    -4.009000000     3.001000000
H     2.248000000    -4.581000000     2.813000000
H     3.431000000    -3.902000000     2.157000000
O     0.935000000    -5.860000000     3.067000000
H     0.070000000    -5.890000000     2.656000000
H     1.056000000    -6.736000000     3.434000000
O    -2.014000000     1.115000000    -7.833000000
H    -2.108000000     1.119000000    -6.881000000
H    -2.565000000     1.839000000    -8.131000000
O     2.770000000     2.831000000     5.634000000
H     2.534000000     3.137000000     4.758000000
H     2.116000000     3.226000000     6.210000000
O     5.547000000    -3.432000000     1.370000000
H     5.564000000    -2.478000000     1.445000000
H     6.083000000    -3.739000000     2.101000000
O    -1.095000000     4.688000000    -5.707000000
H    -2.034000000     4.644000000    -5.525000000
H    -0.693000000     4.850000000    -4.853000000
O     2.359000000     5.843000000    -1.827000000
H     2.680000000     5.570000000    -0.968000000
H     2.810000000     5.268000000    -2.445000000
O     3.128000000     3.764000000    -3.222000000
H     2.486000000     3.067000000    -3.356000000
H     3.934000000     3.306000000    -2.983000000
O     4.975000000    -1.151000000    -0.509000000
H     4.932000000    -0.260000000    -0.163000000
H     4.298000000    -1.179000000    -1.185000000
