158
-3040.91121
C    -0.397000000    -0.623000000    -1.292000000
H    -0.840000000    -1.174000000    -2.118000000
C    -0.935000000    -0.944000000    -0.003000000
H    -1.656000000    -1.747000000     0.130000000
C    -0.456000000    -0.286000000     1.101000000
H    -0.699000000    -0.664000000     2.073000000
C     0.641000000     0.559000000     0.976000000
H     1.141000000     0.891000000     1.883000000
C     1.155000000     0.876000000    -0.262000000
H     1.935000000     1.616000000    -0.423000000
C     0.532000000     0.363000000    -1.429000000
C     1.033000000     0.815000000    -2.818000000
O     0.568000000     0.294000000    -3.820000000
O     1.875000000     1.721000000    -3.006000000
O    -2.308000000    -5.607000000    -1.366000000
H    -2.490000000    -6.224000000    -2.073000000
H    -3.030000000    -5.729000000    -0.749000000
O     0.416000000    -3.922000000     6.825000000
H     0.984000000    -3.801000000     6.064000000
H    -0.093000000    -3.113000000     6.875000000
O    -3.814000000     1.425000000     0.749000000
H    -3.636000000     1.376000000     1.689000000
H    -3.183000000     2.065000000     0.420000000
O     2.769000000    -0.545000000    -7.370000000
H     3.065000000     0.086000000    -8.027000000
H     3.231000000    -0.293000000    -6.571000000
O    -5.689000000    -2.951000000     0.785000000
H    -4.873000000    -2.566000000     1.104000000
H    -5.705000000    -2.738000000    -0.148000000
O     1.796000000     1.016000000     4.297000000
H     1.941000000     1.913000000     3.995000000
H     0.851000000     0.888000000     4.223000000
O    -3.772000000    -2.462000000     2.620000000
H    -4.514000000    -2.687000000     3.181000000
H    -3.213000000    -1.913000000     3.170000000
O    -4.718000000    -3.044000000    -2.037000000
H    -4.986000000    -2.964000000    -2.953000000
H    -4.551000000    -2.143000000    -1.757000000
O     1.851000000     5.165000000    -5.821000000
H     1.169000000     4.814000000    -5.249000000
H     2.628000000     4.647000000    -5.613000000
O    -3.590000000     3.747000000     4.286000000
H    -2.948000000     3.654000000     3.582000000
H    -3.384000000     4.591000000     4.688000000
O    -6.088000000     0.401000000     2.468000000
H    -6.010000000     1.131000000     3.083000000
H    -5.547000000     0.658000000     1.722000000
O    -3.356000000    -0.799000000    -4.000000000
H    -4.030000000    -1.377000000    -4.355000000
H    -3.682000000    -0.554000000    -3.134000000
O     1.521000000    -4.553000000    -3.438000000
H     0.984000000    -4.066000000    -2.813000000
H     1.456000000    -4.052000000    -4.251000000
O     5.612000000     4.440000000    -5.581000000
H     5.078000000     3.730000000    -5.222000000
H     5.711000000     4.220000000    -6.507000000
O     5.829000000     2.292000000    -0.758000000
H     6.608000000     1.880000000    -1.132000000
H     5.444000000     1.616000000    -0.201000000
O     1.728000000     0.239000000     7.172000000
H     1.623000000     0.256000000     6.221000000
H     2.670000000     0.142000000     7.308000000
O    -0.519000000     1.305000000    -6.442000000
H     0.069000000     1.696000000    -7.088000000
H     0.061000000     1.004000000    -5.742000000
O     1.504000000    -2.701000000    -6.029000000
H     1.984000000    -2.020000000    -6.500000000
H     0.821000000    -2.228000000    -5.554000000
O    -4.482000000    -0.246000000    -1.615000000
H    -4.171000000     0.392000000    -0.972000000
H    -5.369000000     0.044000000    -1.830000000
O    -0.388000000     5.211000000    -0.774000000
H    -0.311000000     4.756000000    -1.613000000
H     0.470000000     5.104000000    -0.364000000
O    -2.268000000    -1.508000000     4.818000000
H    -2.207000000    -2.016000000     5.627000000
H    -2.732000000    -0.710000000     5.071000000
O    -4.518000000    -5.649000000     0.117000000
H    -3.924000000    -5.906000000     0.822000000
H    -5.003000000    -4.904000000     0.472000000
O    -0.221000000    -4.096000000    -0.795000000
H     0.262000000    -4.843000000    -0.441000000
H    -1.090000000    -4.446000000    -0.994000000
O    -0.767000000     3.377000000     6.718000000
H    -1.007000000     2.690000000     6.097000000
H    -1.577000000     3.567000000     7.190000000
O     1.811000000    -2.558000000     4.154000000
H     1.396000000    -2.831000000     3.336000000
H     2.222000000    -1.719000000     3.946000000
O    -1.211000000     1.729000000     4.496000000
H    -1.174000000     2.418000000     3.833000000
H    -2.054000000     1.299000000     4.347000000
O    -2.610000000    -5.141000000     1.929000000
H    -2.962000000    -4.253000000     1.868000000
H    -2.858000000    -5.437000000     2.805000000
O    -3.906000000     0.978000000     5.081000000
H    -4.856000000     0.884000000     5.158000000
H    -3.737000000     1.892000000     5.309000000
O    -2.344000000     3.687000000    -0.259000000
H    -2.902000000     3.926000000    -0.999000000
H    -1.579000000     4.257000000    -0.343000000
O     3.154000000     2.910000000    -5.021000000
H     2.751000000     2.731000000    -4.171000000
H     3.466000000     2.056000000    -5.322000000
O     0.989000000     2.972000000    -8.037000000
H     0.431000000     3.750000000    -8.068000000
H     1.601000000     3.145000000    -7.321000000
O    -0.882000000    -1.629000000    -4.678000000
H    -1.756000000    -1.307000000    -4.459000000
H    -0.300000000    -0.896000000    -4.477000000
O    -1.453000000     3.498000000     2.558000000
H    -1.694000000     3.106000000     1.719000000
H    -1.482000000     4.441000000     2.399000000
O     5.126000000     0.656000000     1.567000000
H     4.979000000     1.376000000     2.181000000
H     4.339000000     0.116000000     1.638000000
O     2.249000000    -5.463000000     3.981000000
H     2.771000000    -4.855000000     4.504000000
H     1.523000000    -4.934000000     3.651000000
O     3.628000000    -0.038000000    -4.714000000
H     2.999000000     0.520000000    -4.257000000
H     3.995000000    -0.597000000    -4.029000000
O    -3.014000000     0.283000000    -6.978000000
H    -3.049000000    -0.461000000    -6.377000000
H    -2.121000000     0.617000000    -6.894000000
O    -1.862000000     3.273000000    -4.932000000
H    -1.547000000     2.518000000    -5.429000000
H    -2.680000000     2.974000000    -4.535000000
O     3.751000000    -1.806000000     1.083000000
H     4.318000000    -2.342000000     0.528000000
H     2.943000000    -2.314000000     1.162000000
O     1.685000000    -3.491000000     1.515000000
H     1.550000000    -4.389000000     1.213000000
H     0.965000000    -2.996000000     1.125000000
O     0.066000000     3.814000000    -3.000000000
H    -0.516000000     3.579000000    -3.722000000
H     0.641000000     3.055000000    -2.898000000
O    -2.625000000    -3.161000000    -5.934000000
H    -1.939000000    -2.718000000    -5.434000000
H    -2.150000000    -3.740000000    -6.530000000
O     6.459000000    -0.145000000    -1.167000000
H     5.623000000    -0.371000000    -1.575000000
H     6.577000000    -0.803000000    -0.482000000
O     3.910000000     6.170000000    -1.360000000
H     4.677000000     6.187000000    -1.933000000
H     3.550000000     5.289000000    -1.468000000
O     5.096000000    -2.136000000     3.472000000
H     5.628000000    -2.888000000     3.212000000
H     4.479000000    -2.019000000     2.749000000
O     3.789000000     3.600000000    -2.057000000
H     4.379000000     3.057000000    -1.535000000
H     3.277000000     2.973000000    -2.569000000
O     4.280000000    -1.483000000    -2.423000000
H     4.312000000    -2.412000000    -2.195000000
H     3.432000000    -1.185000000    -2.093000000
O    -4.375000000     2.199000000    -4.381000000
H    -4.302000000     1.252000000    -4.258000000
H    -4.799000000     2.512000000    -3.582000000
