158
-3049.67130
C     0.390000000    -0.960000000    -1.024000000
H     0.633000000    -1.776000000    -1.700000000
C    -0.750000000    -1.121000000    -0.195000000
H    -1.288000000    -2.065000000    -0.152000000
C    -1.055000000    -0.084000000     0.680000000
H    -1.848000000    -0.109000000     1.425000000
C    -0.137000000     1.059000000     0.821000000
H    -0.359000000     1.841000000     1.542000000
C     0.906000000     1.176000000    -0.084000000
H     1.518000000     2.065000000     0.045000000
C     1.171000000     0.214000000    -1.000000000
C     2.465000000     0.279000000    -1.808000000
O     2.887000000    -0.744000000    -2.425000000
O     3.142000000     1.288000000    -1.682000000
O     0.475000000    -3.978000000     4.092000000
H     0.104000000    -4.665000000     3.539000000
H     1.380000000    -4.252000000     4.239000000
O     1.348000000     0.941000000     4.567000000
H     0.932000000     0.255000000     5.089000000
H     0.723000000     1.666000000     4.582000000
O    -0.177000000    -5.681000000    -2.532000000
H    -0.686000000    -4.892000000    -2.719000000
H    -0.010000000    -6.068000000    -3.392000000
O     4.138000000     3.896000000    -0.896000000
H     4.242000000     3.590000000     0.005000000
H     3.444000000     3.344000000    -1.257000000
O     6.146000000    -3.816000000    -0.484000000
H     6.604000000    -3.029000000    -0.188000000
H     5.220000000    -3.572000000    -0.474000000
O    -3.246000000     5.387000000     2.989000000
H    -3.836000000     5.732000000     3.660000000
H    -2.933000000     4.557000000     3.348000000
O     1.619000000    -2.941000000     1.182000000
H     1.227000000    -3.380000000     1.937000000
H     1.025000000    -2.216000000     0.991000000
O    -0.477000000     4.974000000     1.579000000
H    -1.266000000     5.255000000     2.042000000
H    -0.103000000     5.783000000     1.231000000
O     3.981000000     2.250000000     3.901000000
H     3.315000000     1.728000000     3.453000000
H     3.803000000     2.117000000     4.833000000
O    -3.378000000     2.476000000     1.082000000
H    -2.887000000     2.455000000     1.904000000
H    -4.269000000     2.228000000     1.329000000
O     0.409000000     4.350000000    -1.132000000
H     0.416000000     4.461000000    -0.181000000
H    -0.437000000     3.945000000    -1.320000000
O    -4.105000000    -1.248000000     3.286000000
H    -4.158000000    -2.140000000     3.630000000
H    -5.013000000    -0.947000000     3.260000000
O    -7.974000000    -1.928000000     0.221000000
H    -8.273000000    -1.421000000    -0.533000000
H    -7.042000000    -1.720000000     0.295000000
O     2.897000000    -5.244000000    -3.372000000
H     2.093000000    -5.160000000    -2.860000000
H     3.541000000    -4.722000000    -2.894000000
O     4.074000000    -1.294000000    -4.985000000
H     4.056000000    -0.358000000    -5.186000000
H     3.578000000    -1.373000000    -4.171000000
O     1.711000000     4.418000000    -3.611000000
H     1.122000000     5.172000000    -3.599000000
H     1.753000000     4.133000000    -2.698000000
O     0.984000000     3.687000000     3.545000000
H     0.622000000     4.214000000     2.832000000
H     1.862000000     4.043000000     3.684000000
O    -0.591000000     0.061000000    -5.816000000
H    -0.544000000     0.698000000    -5.104000000
H     0.229000000     0.178000000    -6.296000000
O    -2.344000000     2.920000000     3.800000000
H    -1.640000000     3.022000000     4.440000000
H    -2.915000000     2.251000000     4.178000000
O    -1.129000000    -4.999000000     1.872000000
H    -1.869000000    -4.729000000     1.328000000
H    -0.720000000    -5.714000000     1.383000000
O    -5.230000000    -1.333000000     0.327000000
H    -4.795000000    -0.668000000    -0.206000000
H    -5.285000000    -0.942000000     1.199000000
O     1.585000000     2.597000000    -5.833000000
H     2.456000000     2.199000000    -5.815000000
H     1.441000000     2.898000000    -4.936000000
O    -3.633000000     0.577000000     5.376000000
H    -3.450000000     0.087000000     4.574000000
H    -4.100000000    -0.044000000     5.935000000
O    -2.792000000    -4.276000000    -0.226000000
H    -3.745000000    -4.199000000    -0.178000000
H    -2.577000000    -4.040000000    -1.128000000
O     5.792000000    -3.557000000    -5.377000000
H     6.234000000    -3.741000000    -6.206000000
H     5.292000000    -2.758000000    -5.545000000
O     3.056000000     6.129000000     1.357000000
H     3.696000000     5.443000000     1.545000000
H     3.117000000     6.261000000     0.410000000
O     3.275000000     6.468000000    -1.194000000
H     3.443000000     5.578000000    -1.503000000
H     2.842000000     6.901000000    -1.930000000
O    -5.361000000    -4.107000000    -0.055000000
H    -5.382000000    -3.258000000     0.387000000
H    -6.282000000    -4.340000000    -0.170000000
O     7.364000000    -0.242000000    -4.442000000
H     6.555000000    -0.409000000    -3.958000000
H     8.058000000    -0.352000000    -3.792000000
O     6.191000000     1.813000000    -1.063000000
H     6.192000000     1.060000000    -1.654000000
H     5.473000000     2.363000000    -1.377000000
O    -2.194000000    -3.053000000    -2.964000000
H    -2.585000000    -2.184000000    -3.057000000
H    -1.638000000    -3.150000000    -3.737000000
O    -2.226000000     3.582000000    -1.236000000
H    -2.567000000     3.238000000    -0.410000000
H    -2.570000000     4.473000000    -1.285000000
O    -3.972000000     0.842000000    -1.066000000
H    -4.538000000     1.613000000    -1.090000000
H    -3.274000000     1.076000000    -0.454000000
O     3.822000000     1.551000000    -4.312000000
H     3.587000000     1.414000000    -3.395000000
H     4.441000000     2.281000000    -4.295000000
O    -5.613000000     2.523000000     3.266000000
H    -5.876000000     3.355000000     2.874000000
H    -5.587000000     2.699000000     4.207000000
O     4.238000000    -1.896000000     2.188000000
H     4.373000000    -1.097000000     1.678000000
H     3.294000000    -1.923000000     2.344000000
O     4.787000000     3.532000000     1.682000000
H     5.713000000     3.288000000     1.704000000
H     4.382000000     2.998000000     2.365000000
O     3.324000000    -2.581000000    -7.264000000
H     3.428000000    -2.306000000    -6.353000000
H     3.082000000    -1.780000000    -7.729000000
O     0.191000000    -1.346000000     5.353000000
H     0.199000000    -2.260000000     5.070000000
H    -0.646000000    -1.242000000     5.806000000
O    -0.714000000     4.046000000     5.774000000
H    -0.499000000     4.464000000     6.607000000
H     0.029000000     4.247000000     5.206000000
O     5.544000000    -0.576000000    -2.274000000
H     5.672000000    -1.468000000    -1.952000000
H     4.600000000    -0.506000000    -2.416000000
O    -3.254000000    -0.476000000    -3.218000000
H    -3.621000000    -0.029000000    -2.455000000
H    -2.460000000     0.017000000    -3.425000000
O     4.783000000     0.263000000     0.571000000
H     5.705000000     0.339000000     0.324000000
H     4.304000000     0.417000000    -0.243000000
O    -2.651000000    -3.647000000     5.004000000
H    -2.360000000    -3.483000000     4.106000000
H    -2.222000000    -2.966000000     5.522000000
O     3.488000000    -3.124000000    -0.686000000
H     3.131000000    -2.431000000    -1.241000000
H     2.967000000    -3.083000000     0.115000000
O     1.972000000    -0.227000000     2.340000000
H     1.480000000     0.192000000     1.634000000
H     1.499000000     0.014000000     3.136000000
O    -6.439000000     0.053000000     2.533000000
H    -7.351000000    -0.041000000     2.811000000
H    -6.176000000     0.913000000     2.862000000
O    -1.208000000     1.773000000    -4.088000000
H    -2.052000000     2.192000000    -4.260000000
H    -0.896000000     2.185000000    -3.282000000
