158
-3032.76363
C     0.937000000    -0.832000000    -0.861000000
H     1.541000000    -1.523000000    -1.444000000
C     0.229000000    -1.282000000     0.192000000
H     0.189000000    -2.343000000     0.421000000
C    -0.720000000    -0.500000000     0.867000000
H    -1.425000000    -0.824000000     1.557000000
C    -0.829000000     0.859000000     0.484000000
H    -1.469000000     1.552000000     1.024000000
C     0.017000000     1.407000000    -0.524000000
H    -0.006000000     2.479000000    -0.706000000
C     0.897000000     0.542000000    -1.156000000
C     1.740000000     1.189000000    -2.213000000
O     2.793000000     0.716000000    -2.465000000
O     1.301000000     2.133000000    -2.856000000
O    -1.051000000     5.362000000     0.854000000
H    -1.836000000     5.062000000     0.395000000
H    -0.467000000     5.663000000     0.159000000
O    -3.208000000    -2.948000000     0.167000000
H    -2.594000000    -3.643000000     0.402000000
H    -3.429000000    -2.532000000     1.001000000
O    -2.632000000     4.126000000     4.379000000
H    -3.110000000     4.548000000     3.665000000
H    -1.953000000     4.757000000     4.618000000
O     0.990000000     5.268000000    -5.374000000
H     0.451000000     4.520000000    -5.630000000
H     0.644000000     6.000000000    -5.886000000
O    -1.297000000     0.327000000     6.180000000
H    -1.012000000     0.786000000     6.970000000
H    -2.083000000     0.798000000     5.900000000
O     2.126000000     0.120000000     2.126000000
H     2.419000000     0.966000000     1.788000000
H     1.259000000    -0.005000000     1.741000000
O     1.812000000     1.258000000    -6.758000000
H     2.559000000     1.538000000    -6.230000000
H     1.115000000     1.875000000    -6.533000000
O     3.819000000     2.303000000    -5.143000000
H     4.711000000     2.546000000    -4.896000000
H     3.370000000     2.160000000    -4.310000000
O    -4.610000000     2.384000000     1.466000000
H    -4.693000000     3.089000000     2.109000000
H    -4.245000000     2.809000000     0.690000000
O    -3.703000000     1.524000000    -2.994000000
H    -3.410000000     0.869000000    -2.361000000
H    -4.237000000     2.131000000    -2.481000000
O    -3.006000000    -0.878000000    -1.411000000
H    -2.505000000    -0.220000000    -0.927000000
H    -2.821000000    -1.700000000    -0.958000000
O     2.622000000    -4.159000000    -3.257000000
H     2.447000000    -3.923000000    -2.346000000
H     2.796000000    -3.325000000    -3.692000000
O     2.723000000     3.947000000    -7.685000000
H     2.876000000     3.423000000    -6.898000000
H     3.365000000     4.654000000    -7.630000000
O     6.039000000     1.045000000     1.167000000
H     5.928000000     1.996000000     1.198000000
H     5.865000000     0.813000000     0.255000000
O    -0.327000000    -1.987000000     4.961000000
H    -0.452000000    -2.340000000     5.841000000
H    -0.570000000    -1.064000000     5.036000000
O    -2.139000000    -5.849000000     3.323000000
H    -2.703000000    -6.479000000     2.875000000
H    -2.159000000    -6.120000000     4.241000000
O    -5.611000000    -4.029000000    -0.630000000
H    -6.245000000    -3.809000000     0.052000000
H    -4.857000000    -3.469000000    -0.445000000
O    -2.867000000     4.036000000    -0.821000000
H    -3.684000000     3.564000000    -0.981000000
H    -2.434000000     4.061000000    -1.675000000
O    -0.987000000    -4.894000000    -3.981000000
H    -0.404000000    -4.781000000    -3.230000000
H    -0.475000000    -5.408000000    -4.606000000
O    -1.992000000     4.046000000    -3.445000000
H    -1.361000000     3.574000000    -3.989000000
H    -2.758000000     4.155000000    -4.008000000
O     5.254000000    -1.824000000    -5.239000000
H     4.798000000    -2.403000000    -5.850000000
H     4.574000000    -1.531000000    -4.633000000
O     1.510000000    -5.536000000     1.252000000
H     1.714000000    -4.780000000     0.702000000
H     0.794000000    -5.238000000     1.814000000
O     2.294000000    -1.132000000     4.749000000
H     2.169000000    -0.982000000     3.812000000
H     1.448000000    -1.460000000     5.054000000
O    -1.448000000    -2.273000000    -5.096000000
H    -0.607000000    -1.952000000    -5.422000000
H    -1.244000000    -3.122000000    -4.703000000
O     0.250000000     6.336000000    -1.192000000
H     0.403000000     5.963000000    -2.060000000
H     0.898000000     7.036000000    -1.115000000
O    -0.433000000     2.509000000    -4.879000000
H     0.243000000     2.354000000    -4.220000000
H    -1.019000000     1.756000000    -4.803000000
O     2.923000000    -1.392000000    -3.849000000
H     2.349000000    -1.199000000    -4.590000000
H     2.843000000    -0.628000000    -3.279000000
O     0.918000000     3.674000000     2.174000000
H     0.115000000     4.091000000     1.861000000
H     0.619000000     3.033000000     2.819000000
O    -3.041000000    -2.395000000     5.786000000
H    -2.439000000    -1.781000000     6.207000000
H    -2.854000000    -3.237000000     6.202000000
O     7.021000000     1.365000000    -2.508000000
H     6.242000000     1.849000000    -2.234000000
H     6.787000000     0.445000000    -2.383000000
O     4.098000000    -1.725000000     1.158000000
H     3.777000000    -0.899000000     1.519000000
H     4.315000000    -2.254000000     1.925000000
O     5.435000000    -0.548000000    -1.619000000
H     4.563000000    -0.363000000    -1.968000000
H     5.274000000    -1.090000000    -0.847000000
O    -6.570000000     0.074000000     1.444000000
H    -5.872000000    -0.479000000     1.796000000
H    -6.390000000     0.944000000     1.802000000
O    -3.547000000    -6.171000000    -0.487000000
H    -4.384000000    -5.728000000    -0.625000000
H    -2.890000000    -5.539000000    -0.779000000
O     4.545000000     2.606000000    -1.716000000
H     3.906000000     2.107000000    -2.224000000
H     4.019000000     3.233000000    -1.219000000
O     1.770000000    -4.658000000     4.405000000
H     1.209000000    -4.236000000     3.755000000
H     1.208000000    -5.315000000     4.816000000
O    -3.589000000     0.433000000     2.920000000
H    -3.643000000     0.857000000     3.776000000
H    -3.976000000     1.065000000     2.315000000
O    -0.080000000     2.139000000     4.328000000
H    -1.002000000     2.371000000     4.211000000
H    -0.088000000     1.457000000     4.999000000
O    -3.815000000    -2.303000000     2.904000000
H    -3.571000000    -2.641000000     3.765000000
H    -3.663000000    -1.360000000     2.964000000
O     1.858000000     4.834000000    -2.926000000
H     1.449000000     4.913000000    -3.788000000
H     1.908000000     3.891000000    -2.770000000
O    -0.414000000    -3.695000000     2.634000000
H    -0.538000000    -3.017000000     3.298000000
H    -1.146000000    -4.297000000     2.766000000
O    -2.196000000     0.173000000    -5.172000000
H    -2.924000000     0.434000000    -4.607000000
H    -2.108000000    -0.770000000    -5.029000000
O    -5.285000000    -5.117000000     2.693000000
H    -4.330000000    -5.163000000     2.633000000
H    -5.585000000    -5.168000000     1.786000000
O    -0.555000000    -5.905000000    -1.157000000
H     0.316000000    -6.127000000    -1.488000000
H    -0.710000000    -6.535000000    -0.453000000
O     2.598000000    -3.536000000    -0.566000000
H     3.496000000    -3.810000000    -0.381000000
H     2.574000000    -2.612000000    -0.319000000
O     3.290000000     2.645000000     1.421000000
H     2.470000000     3.002000000     1.762000000
H     3.480000000     3.179000000     0.649000000
O     3.460000000     4.842000000    -0.412000000
H     3.813000000     5.692000000    -0.151000000
H     2.636000000     5.050000000    -0.852000000
O    -3.401000000     1.813000000     5.539000000
H    -4.195000000     1.915000000     6.064000000
H    -3.295000000     2.657000000     5.100000000
