158
-3009.42663
C     1.184000000    -0.753000000    -0.429000000
H     1.955000000    -1.447000000    -0.755000000
C     0.542000000    -0.938000000     0.808000000
H     0.850000000    -1.735000000     1.481000000
C    -0.539000000    -0.155000000     1.122000000
H    -1.099000000    -0.253000000     2.110000000
C    -0.935000000     0.852000000     0.208000000
H    -1.792000000     1.485000000     0.419000000
C    -0.320000000     0.961000000    -0.998000000
H    -0.732000000     1.605000000    -1.771000000
C     0.871000000     0.269000000    -1.303000000
C     1.529000000     0.433000000    -2.634000000
O     2.206000000    -0.481000000    -3.043000000
O     1.540000000     1.524000000    -3.087000000
O    -1.393000000     4.971000000     0.286000000
H    -0.693000000     4.536000000     0.773000000
H    -1.988000000     5.297000000     0.962000000
O    -0.438000000    -5.474000000     2.497000000
H    -1.370000000    -5.689000000     2.532000000
H    -0.303000000    -5.138000000     1.611000000
O     2.497000000    -2.543000000     4.690000000
H     2.455000000    -2.607000000     3.735000000
H     3.365000000    -2.182000000     4.867000000
O    -2.604000000     3.732000000     4.234000000
H    -2.857000000     4.027000000     5.108000000
H    -1.681000000     3.494000000     4.320000000
O    -6.631000000    -3.639000000     2.887000000
H    -5.685000000    -3.777000000     2.926000000
H    -7.006000000    -4.454000000     3.220000000
O     2.966000000     5.538000000    -6.204000000
H     3.186000000     4.777000000    -5.666000000
H     2.485000000     6.118000000    -5.614000000
O    -0.287000000    -1.881000000     4.418000000
H    -0.094000000    -0.979000000     4.672000000
H     0.404000000    -2.400000000     4.830000000
O     1.330000000    -2.091000000    -7.065000000
H     0.542000000    -2.019000000    -6.527000000
H     2.049000000    -1.897000000    -6.465000000
O     3.302000000    -0.812000000    -5.461000000
H     3.467000000     0.119000000    -5.608000000
H     3.119000000    -0.879000000    -4.524000000
O    -5.258000000    -0.010000000     2.899000000
H    -4.743000000     0.653000000     2.440000000
H    -5.815000000    -0.393000000     2.221000000
O    -3.703000000     0.326000000    -1.758000000
H    -4.535000000     0.052000000    -1.374000000
H    -3.067000000     0.225000000    -1.050000000
O     0.633000000     4.526000000     2.240000000
H     0.330000000     4.175000000     3.077000000
H     1.404000000     4.000000000     2.025000000
O     2.875000000    -4.331000000    -0.589000000
H     2.829000000    -5.213000000    -0.957000000
H     2.804000000    -3.751000000    -1.348000000
O    -3.002000000    -5.026000000     6.127000000
H    -2.897000000    -4.216000000     5.628000000
H    -3.941000000    -5.079000000     6.303000000
O     3.702000000    -0.762000000     2.284000000
H     3.350000000    -1.584000000     1.942000000
H     4.534000000    -1.008000000     2.690000000
O     1.202000000    -0.076000000     6.080000000
H     2.101000000    -0.360000000     5.918000000
H     1.207000000     0.861000000     5.885000000
O     0.233000000    -4.816000000    -0.045000000
H     1.129000000    -4.498000000    -0.149000000
H     0.009000000    -5.184000000    -0.900000000
O    -5.433000000     2.214000000    -3.013000000
H    -5.057000000     2.202000000    -3.893000000
H    -4.704000000     1.982000000    -2.437000000
O    -1.282000000     1.300000000    -6.499000000
H    -1.389000000     1.367000000    -7.448000000
H    -0.919000000     0.426000000    -6.359000000
O    -3.001000000     5.544000000     2.281000000
H    -2.399000000     6.184000000     2.659000000
H    -3.119000000     4.890000000     2.970000000
O    -2.365000000     4.535000000    -2.370000000
H    -2.026000000     4.694000000    -1.489000000
H    -1.595000000     4.286000000    -2.882000000
O     0.405000000     3.567000000     4.847000000
H     0.181000000     4.376000000     5.307000000
H     0.770000000     2.999000000     5.525000000
O     4.931000000    -2.751000000    -6.706000000
H     5.220000000    -2.061000000    -7.304000000
H     4.030000000    -2.514000000    -6.485000000
O     0.773000000    -4.925000000     4.815000000
H     0.209000000    -5.162000000     4.079000000
H     1.343000000    -4.238000000     4.468000000
O    -1.595000000    -2.858000000    -0.323000000
H    -1.119000000    -3.645000000    -0.056000000
H    -1.074000000    -2.135000000     0.026000000
O     4.482000000     3.939000000    -3.236000000
H     3.858000000     3.294000000    -3.569000000
H     5.124000000     3.421000000    -2.749000000
O     3.389000000     1.943000000    -4.899000000
H     2.922000000     1.645000000    -4.119000000
H     2.700000000     2.251000000    -5.488000000
O    -3.416000000     3.040000000    -4.895000000
H    -3.124000000     3.208000000    -3.998000000
H    -3.005000000     2.208000000    -5.128000000
O     1.857000000    -3.124000000    -2.959000000
H     1.013000000    -3.042000000    -3.404000000
H     2.198000000    -2.230000000    -2.925000000
O     0.177000000    -1.927000000     7.665000000
H     0.468000000    -1.170000000     7.157000000
H    -0.057000000    -1.566000000     8.520000000
O    -3.907000000    -1.200000000    -4.379000000
H    -4.773000000    -1.363000000    -4.753000000
H    -4.083000000    -0.709000000    -3.576000000
O     5.772000000    -3.672000000    -3.909000000
H     5.020000000    -3.173000000    -4.226000000
H     6.136000000    -4.082000000    -4.694000000
O    -7.176000000     2.128000000     2.904000000
H    -7.895000000     1.944000000     2.299000000
H    -6.499000000     1.492000000     2.671000000
O     5.506000000    -0.327000000    -1.660000000
H     4.551000000    -0.387000000    -1.704000000
H     5.685000000     0.612000000    -1.614000000
O     2.716000000     1.460000000     1.252000000
H     1.802000000     1.191000000     1.159000000
H     3.166000000     0.675000000     1.563000000
O    -4.323000000    -0.578000000     5.341000000
H    -5.069000000    -0.394000000     5.911000000
H    -4.645000000    -0.396000000     4.458000000
O    -3.759000000     2.096000000     1.804000000
H    -3.206000000     2.521000000     1.149000000
H    -3.345000000     2.306000000     2.641000000
O    -2.781000000    -2.691000000     4.548000000
H    -1.874000000    -2.395000000     4.631000000
H    -3.283000000    -1.888000000     4.410000000
O    -0.074000000     4.054000000    -3.718000000
H     0.472000000     4.833000000    -3.605000000
H     0.550000000     3.332000000    -3.783000000
O     3.006000000    -3.545000000     2.072000000
H     3.771000000    -4.042000000     2.361000000
H     2.801000000    -3.902000000     1.208000000
O     1.228000000     2.764000000    -6.367000000
H     0.382000000     2.417000000    -6.083000000
H     1.057000000     3.135000000    -7.232000000
O    -3.617000000    -4.271000000     2.458000000
H    -3.374000000    -3.504000000     2.977000000
H    -3.153000000    -4.155000000     1.629000000
O    -6.509000000     4.464000000     0.536000000
H    -6.061000000     5.248000000     0.852000000
H    -5.913000000     3.745000000     0.748000000
O     4.523000000     4.965000000    -0.063000000
H     4.421000000     4.948000000     0.889000000
H     3.824000000     4.398000000    -0.389000000
O     2.536000000     3.152000000    -0.993000000
H     2.744000000     2.466000000    -0.358000000
H     1.871000000     2.760000000    -1.559000000
O     6.110000000     1.801000000    -5.451000000
H     6.147000000     2.302000000    -6.266000000
H     5.182000000     1.794000000    -5.216000000
O    -2.597000000    -1.699000000     7.814000000
H    -2.982000000    -1.469000000     6.968000000
H    -1.775000000    -2.137000000     7.592000000
O    -1.214000000    -2.022000000    -5.735000000
H    -1.908000000    -1.484000000    -5.354000000
H    -1.568000000    -2.911000000    -5.724000000
