158
-3039.30948
C     1.059000000    -1.070000000    -0.102000000
H     1.850000000    -1.815000000    -0.125000000
C     0.217000000    -0.892000000     0.995000000
H     0.355000000    -1.448000000     1.918000000
C    -0.801000000     0.037000000     0.914000000
H    -1.470000000     0.173000000     1.734000000
C    -1.031000000     0.785000000    -0.232000000
H    -1.863000000     1.476000000    -0.336000000
C    -0.120000000     0.696000000    -1.274000000
H    -0.159000000     1.302000000    -2.176000000
C     0.913000000    -0.282000000    -1.240000000
C     2.022000000    -0.202000000    -2.320000000
O     3.081000000    -0.798000000    -2.082000000
O     1.902000000     0.382000000    -3.381000000
O    -0.171000000     3.149000000     1.760000000
H    -0.133000000     2.308000000     2.217000000
H     0.478000000     3.071000000     1.062000000
O    -1.542000000    -3.956000000     0.617000000
H    -1.910000000    -4.826000000     0.769000000
H    -1.527000000    -3.548000000     1.483000000
O     3.472000000    -0.340000000     4.719000000
H     4.343000000    -0.159000000     4.367000000
H     3.594000000    -0.346000000     5.669000000
O     2.647000000    -4.130000000     2.648000000
H     1.909000000    -4.738000000     2.603000000
H     2.423000000    -3.533000000     3.362000000
O    -2.539000000     1.201000000     5.500000000
H    -2.897000000     1.965000000     5.048000000
H    -1.874000000     1.561000000     6.088000000
O    -0.533000000    -1.032000000     5.453000000
H     0.007000000    -0.390000000     5.913000000
H    -1.394000000    -0.619000000     5.389000000
O     4.799000000     0.848000000     0.429000000
H     4.056000000     1.394000000     0.685000000
H     4.427000000     0.203000000    -0.173000000
O     0.951000000     0.490000000    -8.140000000
H     1.337000000     0.391000000    -7.270000000
H     1.287000000     1.328000000    -8.457000000
O     2.815000000     0.796000000    -5.894000000
H     3.039000000     0.170000000    -5.205000000
H     2.193000000     1.395000000    -5.481000000
O    -3.390000000     2.700000000     3.389000000
H    -3.924000000     3.343000000     2.923000000
H    -2.495000000     2.879000000     3.103000000
O    -3.495000000    -1.089000000    -1.363000000
H    -3.307000000    -0.179000000    -1.591000000
H    -2.754000000    -1.359000000    -0.820000000
O    -4.456000000    -4.153000000    -0.454000000
H    -3.571000000    -3.799000000    -0.365000000
H    -4.995000000    -3.592000000     0.103000000
O    -2.525000000     4.620000000     1.409000000
H    -1.708000000     4.126000000     1.481000000
H    -2.933000000     4.291000000     0.608000000
O     3.299000000     4.102000000    -6.101000000
H     2.391000000     4.007000000    -5.815000000
H     3.270000000     4.791000000    -6.766000000
O    -4.890000000     2.602000000    -3.394000000
H    -5.267000000     1.724000000    -3.335000000
H    -5.463000000     3.069000000    -4.002000000
O    -3.797000000     3.351000000    -0.483000000
H    -4.137000000     2.533000000    -0.122000000
H    -4.356000000     3.530000000    -1.239000000
O    -5.380000000     1.284000000     0.369000000
H    -5.757000000     1.825000000     1.063000000
H    -6.090000000     1.179000000    -0.264000000
O    -2.139000000     3.159000000    -3.222000000
H    -1.989000000     2.927000000    -4.138000000
H    -3.053000000     2.922000000    -3.062000000
O     3.898000000    -3.140000000    -1.470000000
H     3.690000000    -3.657000000    -2.248000000
H     3.397000000    -2.331000000    -1.580000000
O     1.659000000    -2.432000000     4.429000000
H     2.254000000    -1.696000000     4.286000000
H     0.857000000    -2.031000000     4.762000000
O    -0.039000000     4.774000000    -2.724000000
H    -0.866000000     4.379000000    -2.450000000
H    -0.284000000     5.636000000    -3.060000000
O    -0.323000000    -0.738000000    -4.267000000
H     0.524000000    -0.570000000    -3.853000000
H    -0.180000000    -1.522000000    -4.797000000
O    -1.566000000     1.450000000    -5.457000000
H    -0.764000000     1.838000000    -5.808000000
H    -1.267000000     0.680000000    -4.974000000
O     2.706000000    -3.867000000    -4.497000000
H     1.827000000    -3.896000000    -4.875000000
H     3.288000000    -3.777000000    -5.252000000
O     2.695000000     2.414000000     4.941000000
H     1.976000000     2.341000000     4.314000000
H     3.199000000     1.609000000     4.822000000
O     1.709000000     4.691000000     3.068000000
H     1.077000000     4.557000000     2.362000000
H     2.323000000     3.963000000     2.982000000
O    -4.600000000    -3.207000000     4.548000000
H    -4.086000000    -2.457000000     4.845000000
H    -5.422000000    -3.142000000     5.034000000
O     6.715000000     0.217000000    -2.813000000
H     5.820000000     0.555000000    -2.843000000
H     7.261000000     0.993000000    -2.688000000
O     4.741000000    -3.945000000     1.018000000
H     4.644000000    -3.589000000     0.135000000
H     3.851000000    -3.953000000     1.372000000
O     6.569000000    -2.604000000    -2.323000000
H     5.737000000    -2.553000000    -1.853000000
H     6.777000000    -1.695000000    -2.541000000
O     0.848000000     0.938000000     6.562000000
H     1.194000000     0.596000000     7.386000000
H     1.289000000     1.780000000     6.448000000
O     5.493000000     3.711000000    -4.434000000
H     4.785000000     4.201000000    -4.852000000
H     5.069000000     2.923000000    -4.093000000
O    -5.886000000    -1.608000000     0.001000000
H    -5.210000000    -1.298000000    -0.601000000
H    -5.759000000    -1.086000000     0.793000000
O     4.310000000     1.646000000    -2.875000000
H     3.773000000     0.880000000    -3.078000000
H     3.680000000     2.322000000    -2.628000000
O     0.329000000    -5.803000000     2.431000000
H    -0.157000000    -6.330000000     1.797000000
H    -0.346000000    -5.425000000     2.995000000
O    -5.101000000     0.653000000     3.574000000
H    -4.678000000     0.028000000     2.984000000
H    -4.527000000     1.419000000     3.562000000
O     0.763000000     1.168000000     3.373000000
H     0.390000000     0.530000000     3.982000000
H     1.458000000     0.690000000     2.922000000
O    -1.967000000    -3.798000000     3.483000000
H    -2.919000000    -3.775000000     3.577000000
H    -1.660000000    -4.255000000     4.266000000
O     1.349000000     2.779000000    -4.286000000
H     0.620000000     3.216000000    -3.846000000
H     1.434000000     1.940000000    -3.834000000
O    -1.626000000    -3.777000000    -2.163000000
H    -1.623000000    -3.849000000    -1.208000000
H    -0.813000000    -3.317000000    -2.371000000
O    -6.014000000    -0.046000000    -2.559000000
H    -5.280000000    -0.605000000    -2.304000000
H    -6.673000000    -0.654000000    -2.896000000
O     5.673000000     0.464000000    -6.162000000
H     4.720000000     0.393000000    -6.116000000
H     5.994000000    -0.308000000    -5.696000000
O    -6.156000000     2.133000000     5.605000000
H    -7.065000000     2.275000000     5.342000000
H    -5.786000000     1.594000000     4.906000000
O     2.886000000     2.714000000     1.121000000
H     3.622000000     3.190000000     1.507000000
H     2.917000000     2.940000000     0.191000000
O     2.881000000     3.791000000    -1.884000000
H     2.835000000     4.543000000    -1.293000000
H     2.201000000     3.956000000    -2.536000000
O    -4.091000000    -0.956000000     6.549000000
H    -3.921000000    -0.924000000     7.491000000
H    -3.632000000    -0.194000000     6.196000000
O     4.102000000    -1.392000000    -4.788000000
H     3.773000000    -1.381000000    -3.889000000
H     4.611000000    -2.200000000    -4.848000000
O     0.501000000    -2.309000000    -6.372000000
H     0.992000000    -2.779000000    -7.046000000
H    -0.347000000    -2.127000000    -6.776000000
