158
-3065.63938
C     1.421000000    -0.145000000     0.525000000
H     2.385000000    -0.278000000     1.009000000
C     0.298000000    -0.825000000     1.029000000
H     0.299000000    -1.477000000     1.899000000
C    -0.954000000    -0.592000000     0.530000000
H    -1.828000000    -0.977000000     1.104000000
C    -1.148000000     0.239000000    -0.543000000
H    -2.134000000     0.380000000    -0.978000000
C    -0.007000000     0.970000000    -1.011000000
H    -0.172000000     1.697000000    -1.803000000
C     1.278000000     0.735000000    -0.573000000
C     2.430000000     1.492000000    -1.184000000
O     3.617000000     1.234000000    -1.020000000
O     2.327000000     2.482000000    -1.894000000
O    -0.749000000     5.056000000     1.176000000
H    -0.166000000     4.505000000     1.699000000
H    -0.491000000     5.952000000     1.394000000
O     0.573000000    -4.999000000     2.556000000
H    -0.356000000    -5.100000000     2.349000000
H     1.011000000    -5.013000000     1.705000000
O     3.256000000    -1.796000000     3.489000000
H     3.702000000    -1.998000000     2.666000000
H     3.139000000    -0.846000000     3.471000000
O    -4.429000000    -4.741000000     2.453000000
H    -4.932000000    -4.473000000     1.685000000
H    -4.632000000    -4.080000000     3.115000000
O     1.473000000     7.110000000    -1.998000000
H     0.573000000     6.791000000    -2.063000000
H     1.955000000     6.387000000    -1.595000000
O     4.365000000     4.672000000    -4.774000000
H     4.080000000     3.758000000    -4.798000000
H     3.592000000     5.156000000    -4.482000000
O    -3.491000000    -3.052000000    -1.979000000
H    -3.201000000    -2.489000000    -2.696000000
H    -2.681000000    -3.359000000    -1.573000000
O    -0.790000000    -2.065000000     5.089000000
H    -0.037000000    -1.475000000     5.116000000
H    -0.462000000    -2.888000000     5.451000000
O     1.323000000    -2.395000000    -1.601000000
H     0.656000000    -2.498000000    -2.280000000
H     0.968000000    -1.726000000    -1.016000000
O     5.052000000    -0.629000000    -2.711000000
H     5.884000000    -0.174000000    -2.841000000
H     4.451000000     0.054000000    -2.413000000
O    -1.097000000     2.142000000     3.098000000
H    -1.785000000     2.426000000     2.497000000
H    -0.292000000     2.505000000     2.730000000
O    -4.040000000     3.187000000    -1.901000000
H    -4.560000000     2.500000000    -1.483000000
H    -3.133000000     2.961000000    -1.691000000
O    -5.201000000     1.008000000    -0.964000000
H    -5.002000000     0.721000000    -0.073000000
H    -6.150000000     0.909000000    -1.041000000
O     1.123000000     3.068000000     2.119000000
H     1.858000000     2.924000000     2.714000000
H     1.500000000     2.973000000     1.244000000
O    -1.566000000    -7.175000000    -1.334000000
H    -1.909000000    -6.896000000    -2.183000000
H    -1.274000000    -6.365000000    -0.916000000
O    -5.298000000    -3.676000000     5.104000000
H    -5.308000000    -2.741000000     4.900000000
H    -4.535000000    -3.790000000     5.670000000
O     4.280000000     1.706000000     1.474000000
H     3.908000000     1.610000000     0.598000000
H     5.224000000     1.767000000     1.328000000
O     7.096000000     1.818000000     0.296000000
H     6.641000000     1.856000000    -0.545000000
H     7.588000000     0.997000000     0.266000000
O     0.933000000     1.277000000     5.043000000
H     1.619000000     1.740000000     4.563000000
H     0.159000000     1.349000000     4.484000000
O     1.177000000    -4.920000000    -0.224000000
H     1.264000000    -4.030000000    -0.565000000
H     1.499000000    -5.480000000    -0.931000000
O    -6.041000000    -3.560000000    -2.632000000
H    -6.643000000    -2.989000000    -2.155000000
H    -5.192000000    -3.415000000    -2.216000000
O    -4.051000000     0.098000000    -3.195000000
H    -3.423000000     0.799000000    -3.372000000
H    -4.531000000     0.396000000    -2.423000000
O    -5.366000000    -3.387000000     0.360000000
H    -4.561000000    -3.293000000    -0.150000000
H    -6.055000000    -3.059000000    -0.218000000
O    -1.453000000     4.244000000    -1.461000000
H    -0.925000000     4.423000000    -0.682000000
H    -0.812000000     4.054000000    -2.146000000
O     1.889000000     5.842000000    -4.338000000
H     1.982000000     6.599000000    -4.916000000
H     1.682000000     6.218000000    -3.482000000
O     3.739000000     4.611000000     1.566000000
H     4.385000000     3.968000000     1.271000000
H     4.030000000     4.857000000     2.444000000
O     2.163000000    -4.089000000     4.567000000
H     1.617000000    -4.323000000     3.817000000
H     2.499000000    -3.218000000     4.357000000
O    -1.761000000    -4.334000000    -0.161000000
H    -1.991000000    -4.583000000     0.734000000
H    -0.815000000    -4.466000000    -0.211000000
O     5.144000000     5.341000000    -2.080000000
H     5.284000000     5.546000000    -3.004000000
H     4.217000000     5.528000000    -1.931000000
O     3.453000000     2.026000000    -4.318000000
H     3.005000000     2.049000000    -3.473000000
H     2.962000000     1.386000000    -4.833000000
O    -2.327000000     2.141000000    -4.402000000
H    -2.134000000     3.076000000    -4.331000000
H    -1.618000000     1.791000000    -4.942000000
O     4.073000000    -3.032000000    -1.531000000
H     3.150000000    -3.017000000    -1.785000000
H     4.473000000    -2.327000000    -2.040000000
O    -2.421000000    -1.545000000    -4.866000000
H    -2.872000000    -1.097000000    -4.150000000
H    -3.090000000    -2.108000000    -5.255000000
O     7.783000000     2.640000000    -3.790000000
H     7.122000000     2.986000000    -3.191000000
H     7.278000000     2.264000000    -4.512000000
O    -6.992000000     1.179000000     3.432000000
H    -6.075000000     1.432000000     3.329000000
H    -7.298000000     1.018000000     2.539000000
O    -4.143000000     0.391000000     1.630000000
H    -3.659000000     1.193000000     1.826000000
H    -3.885000000    -0.219000000     2.322000000
O     5.563000000     2.728000000    -1.978000000
H     4.742000000     2.336000000    -1.679000000
H     5.365000000     3.661000000    -2.062000000
O     3.217000000     2.246000000     3.871000000
H     3.710000000     1.908000000     3.124000000
H     3.888000000     2.569000000     4.474000000
O    -2.693000000     1.041000000     5.295000000
H    -3.551000000     1.425000000     5.116000000
H    -2.129000000     1.381000000     4.601000000
O    -3.067000000     3.212000000     1.471000000
H    -3.978000000     3.371000000     1.223000000
H    -2.569000000     3.869000000     0.985000000
O    -3.494000000    -1.374000000     4.294000000
H    -2.813000000    -1.085000000     3.687000000
H    -3.246000000    -0.987000000     5.134000000
O     0.390000000     3.714000000    -3.422000000
H     1.058000000     3.030000000    -3.382000000
H     0.689000000     4.301000000    -4.116000000
O    -2.675000000    -3.946000000     6.113000000
H    -2.482000000    -3.009000000     6.132000000
H    -1.816000000    -4.368000000     6.101000000
O     4.462000000    -2.131000000     1.032000000
H     5.401000000    -2.302000000     0.959000000
H     4.099000000    -2.430000000     0.198000000
O     1.721000000     0.698000000    -5.893000000
H     1.829000000    -0.253000000    -5.898000000
H     0.777000000     0.831000000    -5.803000000
O    -1.996000000    -5.597000000     2.322000000
H    -2.847000000    -5.171000000     2.428000000
H    -2.139000000    -6.495000000     2.622000000
O     2.399000000     4.883000000    -0.981000000
H     2.873000000     4.676000000    -0.175000000
H     2.265000000     4.035000000    -1.404000000
O     5.993000000     1.389000000    -5.502000000
H     5.966000000     0.775000000    -6.236000000
H     5.074000000     1.575000000    -5.311000000
