158
-3044.35512
C     0.529000000    -1.284000000     0.335000000
H     0.721000000    -2.351000000     0.423000000
C    -0.822000000    -0.942000000     0.294000000
H    -1.536000000    -1.734000000     0.504000000
C    -1.209000000     0.342000000    -0.030000000
H    -2.296000000     0.657000000    -0.065000000
C    -0.200000000     1.262000000    -0.329000000
H    -0.511000000     2.228000000    -0.716000000
C     1.176000000     0.948000000    -0.234000000
H     1.914000000     1.711000000    -0.466000000
C     1.590000000    -0.335000000     0.071000000
C     3.061000000    -0.700000000     0.118000000
O     3.322000000    -1.874000000     0.496000000
O     3.968000000     0.043000000    -0.262000000
O     1.245000000    -5.379000000     1.350000000
H     2.141000000    -5.709000000     1.409000000
H     1.066000000    -5.012000000     2.216000000
O     2.715000000    -2.823000000     4.066000000
H     3.226000000    -2.903000000     3.261000000
H     1.836000000    -3.110000000     3.821000000
O    -0.557000000    -1.517000000     5.239000000
H    -0.178000000    -2.088000000     4.572000000
H    -0.596000000    -0.656000000     4.823000000
O    -6.174000000    -2.063000000     0.477000000
H    -5.646000000    -2.817000000     0.738000000
H    -6.611000000    -1.786000000     1.283000000
O     5.185000000     1.002000000     1.783000000
H     6.121000000     1.022000000     1.585000000
H     4.792000000     0.545000000     1.039000000
O     8.063000000     0.828000000    -2.018000000
H     8.049000000     0.388000000    -1.167000000
H     7.656000000     1.679000000    -1.854000000
O    -2.265000000     2.507000000     2.465000000
H    -2.162000000     3.173000000     1.786000000
H    -1.591000000     2.718000000     3.112000000
O    -7.890000000    -0.323000000     2.062000000
H    -8.712000000    -0.481000000     2.527000000
H    -7.281000000    -0.037000000     2.742000000
O     4.156000000     1.316000000    -2.439000000
H     4.111000000     0.703000000    -1.706000000
H     3.774000000     2.125000000    -2.099000000
O     1.333000000    -5.824000000    -3.070000000
H     1.640000000    -6.715000000    -3.234000000
H     2.062000000    -5.398000000    -2.619000000
O     2.696000000    -0.032000000     4.679000000
H     2.149000000     0.536000000     4.137000000
H     2.502000000    -0.917000000     4.371000000
O    -4.539000000    -1.323000000     5.098000000
H    -3.877000000    -1.010000000     4.482000000
H    -4.328000000    -2.248000000     5.226000000
O     3.776000000    -3.186000000    -1.759000000
H     3.627000000    -2.745000000    -0.922000000
H     4.039000000    -4.074000000    -1.519000000
O    -2.549000000     4.711000000     0.968000000
H    -2.702000000     5.438000000     1.572000000
H    -3.359000000     4.645000000     0.463000000
O    -6.066000000     0.286000000    -2.805000000
H    -5.566000000    -0.042000000    -2.058000000
H    -5.522000000     0.984000000    -3.170000000
O    -2.191000000    -3.615000000     2.037000000
H    -3.108000000    -3.891000000     2.039000000
H    -1.864000000    -3.875000000     1.176000000
O    -7.149000000     2.464000000    -1.302000000
H    -6.800000000     1.810000000    -1.907000000
H    -6.377000000     2.934000000    -0.986000000
O    -0.826000000    -4.450000000    -0.270000000
H    -0.169000000    -4.973000000     0.190000000
H    -0.673000000    -4.633000000    -1.197000000
O     6.761000000    -3.987000000     0.205000000
H     6.533000000    -3.350000000    -0.472000000
H     7.691000000    -3.835000000     0.373000000
O    -3.455000000     1.753000000    -2.415000000
H    -2.536000000     1.647000000    -2.661000000
H    -3.639000000     1.001000000    -1.851000000
O    -1.036000000     1.177000000    -3.990000000
H    -0.733000000     0.828000000    -4.828000000
H    -0.628000000     2.041000000    -3.929000000
O    -2.970000000     0.056000000     3.241000000
H    -2.833000000     0.990000000     3.082000000
H    -2.464000000    -0.380000000     2.556000000
O     2.037000000    -2.610000000    -3.742000000
H     1.482000000    -1.979000000    -3.284000000
H     2.595000000    -2.980000000    -3.058000000
O    -2.839000000    -6.552000000     0.357000000
H    -2.660000000    -5.947000000    -0.363000000
H    -3.705000000    -6.909000000     0.160000000
O    -2.767000000    -2.618000000    -2.035000000
H    -2.539000000    -3.536000000    -1.885000000
H    -1.968000000    -2.228000000    -2.389000000
O    -4.582000000     3.958000000    -1.169000000
H    -4.102000000     3.298000000    -1.669000000
H    -4.758000000     4.655000000    -1.801000000
O     5.433000000     1.213000000     4.735000000
H     4.706000000     0.771000000     5.174000000
H     5.204000000     1.185000000     3.806000000
O     3.593000000    -5.748000000     2.819000000
H     4.073000000    -4.935000000     2.659000000
H     4.271000000    -6.423000000     2.856000000
O    -4.280000000    -0.673000000    -0.871000000
H    -3.745000000    -1.390000000    -1.211000000
H    -4.967000000    -1.106000000    -0.365000000
O    -3.503000000     0.038000000    -4.768000000
H    -2.825000000     0.596000000    -4.387000000
H    -3.040000000    -0.759000000    -5.026000000
O    -0.253000000     3.964000000    -4.319000000
H    -0.271000000     4.219000000    -3.397000000
H     0.313000000     4.614000000    -4.736000000
O     6.948000000     3.256000000    -1.600000000
H     7.879000000     3.478000000    -1.638000000
H     6.638000000     3.372000000    -2.499000000
O     0.063000000    -1.209000000    -2.726000000
H     0.186000000    -1.036000000    -1.793000000
H    -0.278000000    -0.388000000    -3.079000000
O     0.471000000    -0.064000000     3.061000000
H     0.753000000    -0.028000000     2.147000000
H     0.026000000     0.770000000     3.207000000
O    -0.109000000     2.360000000     4.245000000
H    -0.779000000     2.271000000     4.923000000
H     0.601000000     2.840000000     4.672000000
O     2.825000000     3.854000000    -2.025000000
H     1.905000000     3.910000000    -2.283000000
H     2.829000000     4.094000000    -1.098000000
O     5.579000000     3.493000000     0.739000000
H     5.557000000     2.561000000     0.958000000
H     5.925000000     3.520000000    -0.153000000
O     2.297000000     5.150000000     0.823000000
H     1.809000000     5.400000000     1.608000000
H     2.761000000     5.947000000     0.566000000
O     0.349000000     5.345000000    -1.970000000
H     0.216000000     5.577000000    -1.051000000
H     0.772000000     6.114000000    -2.352000000
O     4.808000000    -3.244000000     2.082000000
H     5.523000000    -3.418000000     1.471000000
H     4.176000000    -2.735000000     1.574000000
O    -5.597000000     2.181000000     1.951000000
H    -4.737000000     2.584000000     2.067000000
H    -5.429000000     1.407000000     1.413000000
O     0.130000000    -3.856000000     3.682000000
H    -0.187000000    -4.498000000     4.318000000
H    -0.635000000    -3.653000000     3.145000000
O     6.184000000     0.765000000    -4.075000000
H     6.919000000     0.625000000    -3.478000000
H     5.466000000     1.049000000    -3.508000000
O     2.700000000     0.967000000    -4.740000000
H     2.856000000     0.179000000    -5.260000000
H     3.254000000     0.859000000    -3.968000000
O     2.756000000     2.468000000     2.706000000
H     2.845000000     3.100000000     1.993000000
H     3.148000000     1.664000000     2.363000000
O    -4.850000000    -4.388000000     0.973000000
H    -5.545000000    -4.971000000     1.277000000
H    -4.735000000    -4.613000000     0.050000000
O     6.272000000    -1.767000000    -1.519000000
H     6.028000000    -1.100000000    -0.877000000
H     5.502000000    -1.853000000    -2.080000000
O     7.669000000     0.825000000     0.731000000
H     7.912000000     0.182000000     1.398000000
H     8.167000000     1.609000000     0.962000000
