158
-3079.70249
C     1.238000000    -0.511000000     0.668000000
H     2.084000000    -1.022000000     1.121000000
C    -0.052000000    -1.033000000     0.815000000
H    -0.144000000    -1.932000000     1.419000000
C    -1.123000000    -0.437000000     0.164000000
H    -2.189000000    -0.895000000     0.226000000
C    -0.928000000     0.661000000    -0.614000000
H    -1.738000000     1.103000000    -1.188000000
C     0.374000000     1.102000000    -0.824000000
H     0.468000000     1.998000000    -1.432000000
C     1.472000000     0.587000000    -0.164000000
C     2.856000000     1.091000000    -0.335000000
O     3.748000000     0.602000000     0.355000000
O     3.066000000     1.840000000    -1.294000000
O    -1.790000000    -4.718000000     1.633000000
H    -1.356000000    -4.484000000     2.453000000
H    -2.612000000    -5.126000000     1.905000000
O     2.205000000    -3.393000000     2.343000000
H     2.143000000    -4.021000000     1.624000000
H     3.141000000    -3.206000000     2.418000000
O     4.092000000    -0.592000000     3.838000000
H     4.634000000    -0.805000000     4.597000000
H     4.408000000     0.264000000     3.550000000
O    -4.584000000    -0.773000000    -1.883000000
H    -4.362000000     0.141000000    -2.063000000
H    -3.774000000    -1.254000000    -2.052000000
O     5.800000000     0.119000000    -1.387000000
H     5.510000000    -0.031000000    -2.287000000
H     5.038000000     0.497000000    -0.950000000
O     8.362000000     1.755000000    -0.430000000
H     8.123000000     0.829000000    -0.400000000
H     8.608000000     1.969000000     0.470000000
O    -0.462000000     1.252000000     2.622000000
H    -0.137000000     0.569000000     2.035000000
H     0.312000000     1.542000000     3.105000000
O    -4.577000000     3.886000000    -0.271000000
H    -4.016000000     4.637000000    -0.465000000
H    -5.468000000     4.214000000    -0.396000000
O    -5.012000000     0.135000000     0.759000000
H    -4.805000000    -0.253000000    -0.091000000
H    -5.774000000     0.689000000     0.590000000
O     5.525000000     3.014000000    -1.939000000
H     4.741000000     2.678000000    -1.505000000
H     5.928000000     2.242000000    -2.337000000
O    -4.739000000    -5.344000000     2.302000000
H    -5.019000000    -4.453000000     2.512000000
H    -4.420000000    -5.697000000     3.132000000
O     1.075000000    -4.795000000     5.301000000
H     0.145000000    -4.748000000     5.522000000
H     1.192000000    -4.134000000     4.619000000
O    -5.017000000    -2.821000000     3.195000000
H    -4.216000000    -2.297000000     3.180000000
H    -5.609000000    -2.336000000     3.771000000
O    -4.173000000     0.050000000     6.251000000
H    -4.006000000     0.097000000     5.310000000
H    -3.699000000    -0.731000000     6.540000000
O    -0.358000000    -5.402000000    -0.612000000
H    -1.002000000    -5.130000000     0.043000000
H     0.487000000    -5.286000000    -0.179000000
O    -6.398000000    -3.850000000    -1.544000000
H    -6.186000000    -3.035000000    -1.999000000
H    -6.715000000    -3.570000000    -0.686000000
O    -2.778000000     0.898000000    -4.744000000
H    -2.198000000     0.329000000    -5.249000000
H    -2.214000000     1.278000000    -4.070000000
O    -0.922000000    -3.570000000     3.757000000
H    -0.207000000    -3.096000000     3.333000000
H    -1.608000000    -2.913000000     3.875000000
O    -2.543000000     3.781000000     1.833000000
H    -2.855000000     3.487000000     2.689000000
H    -3.335000000     4.051000000     1.369000000
O    -0.234000000     3.070000000    -5.299000000
H    -0.233000000     3.620000000    -6.082000000
H     0.539000000     3.349000000    -4.809000000
O    -3.907000000     1.911000000    -1.943000000
H    -3.216000000     2.361000000    -2.429000000
H    -4.283000000     2.587000000    -1.379000000
O     0.218000000     3.932000000     0.891000000
H    -0.325000000     4.370000000     1.546000000
H     0.087000000     2.998000000     1.058000000
O     4.159000000     4.514000000     1.688000000
H     3.966000000     5.124000000     0.976000000
H     3.365000000     4.512000000     2.223000000
O     1.543000000    -1.232000000     4.044000000
H     2.416000000    -0.847000000     3.969000000
H     1.486000000    -1.841000000     3.308000000
O    -4.031000000    -4.957000000    -1.188000000
H    -3.993000000    -4.319000000    -0.475000000
H    -4.726000000    -4.635000000    -1.761000000
O    -2.403000000    -2.536000000    -2.512000000
H    -2.063000000    -3.337000000    -2.113000000
H    -2.778000000    -2.824000000    -3.344000000
O    -1.388000000     5.533000000    -1.374000000
H    -1.583000000     5.139000000    -2.224000000
H    -0.895000000     4.860000000    -0.906000000
O     4.418000000     4.416000000    -4.102000000
H     3.523000000     4.336000000    -3.773000000
H     4.954000000     3.964000000    -3.450000000
O     5.068000000     1.590000000     2.717000000
H     4.902000000     1.302000000     1.819000000
H     4.909000000     2.534000000     2.699000000
O     2.782000000    -2.681000000    -3.637000000
H     2.119000000    -1.997000000    -3.729000000
H     3.513000000    -2.248000000    -3.195000000
O    -2.187000000     3.679000000    -3.352000000
H    -2.743000000     4.398000000    -3.650000000
H    -1.627000000     3.482000000    -4.103000000
O    -0.145000000    -1.369000000    -3.572000000
H     0.539000000    -0.910000000    -3.083000000
H    -0.887000000    -1.407000000    -2.968000000
O    -3.602000000     3.220000000     4.197000000
H    -3.015000000     3.304000000     4.949000000
H    -3.644000000     2.279000000     4.030000000
O    -4.697000000    -1.136000000    -5.231000000
H    -4.392000000    -0.362000000    -4.756000000
H    -4.655000000    -0.882000000    -6.153000000
O     2.437000000    -5.367000000     0.444000000
H     2.251000000    -5.648000000    -0.452000000
H     2.888000000    -6.112000000     0.840000000
O     2.355000000    -0.085000000    -3.012000000
H     2.718000000     0.600000000    -2.451000000
H     2.214000000     0.345000000    -3.855000000
O    -7.154000000    -2.411000000     0.972000000
H    -7.554000000    -1.792000000     0.361000000
H    -6.305000000    -2.023000000     1.184000000
O     2.158000000     1.875000000     2.956000000
H     2.459000000     1.975000000     3.859000000
H     2.824000000     1.327000000     2.541000000
O     6.379000000     5.461000000    -0.619000000
H     6.298000000     4.759000000    -1.264000000
H     6.777000000     5.041000000     0.144000000
O    -2.507000000    -1.432000000     4.128000000
H    -2.919000000    -0.739000000     3.612000000
H    -1.962000000    -0.966000000     4.762000000
O    -3.409000000     0.857000000     2.916000000
H    -3.843000000     0.702000000     2.077000000
H    -2.549000000     1.205000000     2.681000000
O     1.573000000     4.781000000    -3.822000000
H     1.593000000     4.515000000    -2.903000000
H     1.357000000     5.713000000    -3.798000000
O     4.808000000    -2.689000000     2.270000000
H     5.310000000    -2.311000000     1.547000000
H     4.694000000    -1.966000000     2.886000000
O     6.283000000    -0.462000000     1.364000000
H     6.137000000     0.377000000     1.800000000
H     5.667000000    -0.461000000     0.631000000
O     1.992000000     4.385000000    -1.210000000
H     1.465000000     4.372000000    -0.411000000
H     2.378000000     3.510000000    -1.256000000
O    -0.452000000    -1.484000000     5.943000000
H     0.241000000    -1.777000000     5.351000000
H    -0.168000000    -0.617000000     6.233000000
O     5.157000000     0.895000000    -4.120000000
H     4.896000000     1.475000000    -4.835000000
H     4.876000000     0.025000000    -4.403000000
O    -6.592000000    -1.469000000    -3.480000000
H    -6.193000000    -1.426000000    -4.348000000
H    -5.881000000    -1.248000000    -2.878000000
