158
-3065.16092
C     1.487000000    -0.344000000    -0.057000000
H     2.535000000    -0.582000000     0.109000000
C     0.474000000    -1.132000000     0.607000000
H     0.783000000    -1.935000000     1.272000000
C    -0.854000000    -0.695000000     0.513000000
H    -1.581000000    -1.252000000     1.078000000
C    -1.232000000     0.356000000    -0.236000000
H    -2.275000000     0.652000000    -0.154000000
C    -0.274000000     1.055000000    -0.961000000
H    -0.544000000     1.960000000    -1.499000000
C     1.129000000     0.767000000    -0.808000000
C     2.200000000     1.629000000    -1.519000000
O     3.338000000     1.649000000    -1.112000000
O     1.835000000     2.486000000    -2.293000000
O     4.332000000     5.387000000     0.901000000
H     4.366000000     5.509000000    -0.048000000
H     3.955000000     4.515000000     1.016000000
O    -2.020000000     5.337000000     0.296000000
H    -1.140000000     5.008000000     0.110000000
H    -1.880000000     6.231000000     0.610000000
O     1.052000000    -5.453000000     2.944000000
H     0.129000000    -5.430000000     2.689000000
H     1.521000000    -5.638000000     2.130000000
O     3.106000000    -1.685000000     2.988000000
H     3.480000000    -2.092000000     2.206000000
H     2.844000000    -0.810000000     2.700000000
O    -3.979000000    -3.405000000     3.475000000
H    -4.027000000    -2.757000000     2.772000000
H    -4.299000000    -2.942000000     4.249000000
O     5.805000000    -1.077000000     3.579000000
H     4.890000000    -0.804000000     3.656000000
H     6.044000000    -1.362000000     4.461000000
O     4.218000000     3.687000000    -6.418000000
H     3.824000000     3.796000000    -7.284000000
H     3.696000000     3.001000000    -6.003000000
O    -3.204000000    -2.721000000    -1.328000000
H    -2.997000000    -2.050000000    -1.979000000
H    -2.368000000    -3.152000000    -1.153000000
O     0.047000000    -2.473000000     6.599000000
H     0.480000000    -1.648000000     6.816000000
H     0.584000000    -2.850000000     5.903000000
O    -0.101000000    -2.160000000    -2.347000000
H    -0.196000000    -3.100000000    -2.506000000
H    -0.563000000    -2.010000000    -1.522000000
O     4.840000000    -0.480000000    -1.772000000
H     5.440000000    -0.322000000    -1.044000000
H     4.252000000     0.275000000    -1.767000000
O    -0.944000000     2.452000000     2.591000000
H    -1.811000000     2.817000000     2.412000000
H    -0.517000000     2.419000000     1.735000000
O    -5.050000000     0.543000000    -0.977000000
H    -4.606000000     0.642000000    -0.135000000
H    -5.895000000     0.151000000    -0.757000000
O    -6.467000000    -3.861000000     1.764000000
H    -5.962000000    -3.050000000     1.819000000
H    -5.921000000    -4.514000000     2.204000000
O     0.240000000     1.481000000    -5.545000000
H     0.086000000     2.286000000    -5.050000000
H     1.128000000     1.218000000    -5.303000000
O    -4.605000000    -2.146000000     5.689000000
H    -5.233000000    -1.935000000     6.379000000
H    -3.760000000    -1.866000000     6.041000000
O     4.079000000     1.866000000     1.271000000
H     3.632000000     1.824000000     0.425000000
H     4.958000000     2.181000000     1.062000000
O     6.698000000     3.186000000     0.021000000
H     7.034000000     3.992000000     0.411000000
H     7.480000000     2.672000000    -0.180000000
O    -0.666000000     1.400000000     5.068000000
H     0.180000000     1.012000000     5.293000000
H    -0.542000000     1.749000000     4.185000000
O     1.838000000    -5.252000000     0.281000000
H     1.989000000    -4.308000000     0.244000000
H     2.464000000    -5.620000000    -0.343000000
O    -6.057000000    -3.444000000    -1.944000000
H    -5.175000000    -3.162000000    -1.703000000
H    -6.347000000    -2.799000000    -2.589000000
O    -3.841000000     2.079000000    -2.850000000
H    -3.795000000     2.895000000    -2.351000000
H    -4.202000000     1.442000000    -2.235000000
O    -4.348000000    -1.956000000     1.119000000
H    -4.141000000    -2.052000000     0.190000000
H    -4.259000000    -1.018000000     1.289000000
O    -3.414000000     4.984000000    -1.943000000
H    -2.773000000     5.067000000    -1.237000000
H    -3.296000000     5.776000000    -2.468000000
O     1.577000000     6.361000000    -3.564000000
H     1.472000000     6.564000000    -4.494000000
H     1.154000000     7.089000000    -3.110000000
O    -7.017000000     1.443000000     2.297000000
H    -7.409000000     0.570000000     2.286000000
H    -6.074000000     1.282000000     2.260000000
O     1.995000000     3.541000000     1.610000000
H     2.565000000     2.815000000     1.864000000
H     1.765000000     3.965000000     2.437000000
O     1.557000000    -3.302000000     4.593000000
H     1.410000000    -4.034000000     3.994000000
H     2.173000000    -2.734000000     4.130000000
O    -3.558000000     2.588000000    -5.444000000
H    -2.907000000     3.289000000    -5.431000000
H    -3.676000000     2.353000000    -4.523000000
O    -1.055000000    -4.531000000    -0.184000000
H    -1.408000000    -4.680000000     0.693000000
H    -0.154000000    -4.850000000    -0.136000000
O    -1.947000000    -4.522000000    -3.154000000
H    -2.580000000    -4.296000000    -2.472000000
H    -2.389000000    -4.300000000    -3.974000000
O     3.948000000     5.404000000    -1.806000000
H     4.435000000     4.697000000    -2.228000000
H     3.060000000     5.325000000    -2.154000000
O     2.626000000     0.677000000    -4.679000000
H     2.689000000     1.374000000    -4.025000000
H     3.340000000     0.078000000    -4.460000000
O     2.473000000    -3.199000000    -1.932000000
H     1.683000000    -2.706000000    -2.156000000
H     2.683000000    -3.689000000    -2.727000000
O    -2.894000000    -0.857000000    -3.301000000
H    -3.174000000     0.010000000    -3.593000000
H    -2.972000000    -1.409000000    -4.079000000
O    -4.981000000    -5.940000000     2.970000000
H    -4.261000000    -5.332000000     3.142000000
H    -5.048000000    -6.463000000     3.769000000
O     5.703000000    -2.875000000    -3.115000000
H     5.264000000    -2.182000000    -2.621000000
H     6.604000000    -2.567000000    -3.211000000
O    -4.263000000     0.792000000     1.957000000
H    -3.869000000     1.652000000     1.811000000
H    -3.924000000     0.514000000     2.808000000
O     5.257000000     3.025000000    -2.462000000
H     4.374000000     2.760000000    -2.203000000
H     5.768000000     2.976000000    -1.654000000
O     3.217000000     1.041000000     3.907000000
H     3.622000000     1.471000000     3.155000000
H     3.218000000     1.708000000     4.594000000
O    -3.172000000     0.184000000     4.432000000
H    -2.987000000    -0.333000000     5.216000000
H    -2.470000000     0.834000000     4.403000000
O    -3.193000000     3.298000000     1.270000000
H    -2.819000000     4.126000000     0.968000000
H    -4.130000000     3.476000000     1.355000000
O    -2.374000000    -0.855000000     6.872000000
H    -2.178000000    -0.192000000     7.535000000
H    -1.554000000    -1.339000000     6.768000000
O     0.515000000     3.768000000    -4.074000000
H     0.982000000     3.294000000    -3.386000000
H     0.839000000     4.667000000    -4.007000000
O     3.915000000    -2.587000000     0.400000000
H     4.828000000    -2.304000000     0.364000000
H     3.578000000    -2.420000000    -0.481000000
O    -2.039000000    -5.136000000     2.328000000
H    -2.547000000    -4.390000000     2.647000000
H    -2.209000000    -5.831000000     2.963000000
O     0.332000000     4.011000000    -0.296000000
H     0.882000000     3.755000000     0.444000000
H     0.738000000     3.589000000    -1.054000000
O     0.046000000    -1.107000000    -4.779000000
H     0.047000000    -0.150000000    -4.792000000
H    -0.005000000    -1.334000000    -3.851000000
