158
-3037.17255
C    -0.609000000    -1.059000000     0.728000000
H    -1.215000000    -1.885000000     1.092000000
C    -1.305000000    -0.069000000     0.010000000
H    -2.389000000    -0.138000000     0.001000000
C    -0.586000000     0.897000000    -0.657000000
H    -0.980000000     1.689000000    -1.265000000
C     0.817000000     0.887000000    -0.477000000
H     1.365000000     1.614000000    -1.070000000
C     1.475000000     0.007000000     0.331000000
H     2.544000000    -0.003000000     0.528000000
C     0.730000000    -1.095000000     0.866000000
C     1.444000000    -2.152000000     1.717000000
O     0.907000000    -3.227000000     2.002000000
O     2.542000000    -1.972000000     2.032000000
O     4.692000000    -4.390000000    -0.801000000
H     4.247000000    -4.414000000     0.046000000
H     5.406000000    -5.022000000    -0.715000000
O    -0.950000000     6.439000000    -4.297000000
H    -0.328000000     7.136000000    -4.510000000
H    -0.586000000     5.658000000    -4.713000000
O    -4.869000000    -0.879000000    -2.445000000
H    -4.462000000    -0.641000000    -1.612000000
H    -4.308000000    -0.478000000    -3.109000000
O     2.387000000     2.104000000     4.939000000
H     2.884000000     1.863000000     5.720000000
H     2.278000000     1.282000000     4.461000000
O     2.866000000    -0.915000000     4.530000000
H     2.349000000    -1.470000000     5.114000000
H     2.658000000    -1.233000000     3.652000000
O     3.648000000     5.713000000    -0.295000000
H     2.999000000     6.113000000    -0.874000000
H     3.163000000     5.039000000     0.180000000
O    -3.557000000     5.256000000     2.345000000
H    -3.231000000     5.198000000     3.243000000
H    -2.944000000     4.728000000     1.833000000
O     6.053000000     0.932000000     0.561000000
H     6.504000000     0.119000000     0.332000000
H     5.589000000     0.727000000     1.373000000
O     4.688000000     0.893000000    -4.077000000
H     4.373000000     1.748000000    -3.783000000
H     4.931000000     1.030000000    -4.993000000
O    -3.188000000    -1.426000000     3.871000000
H    -2.406000000    -1.941000000     3.669000000
H    -3.906000000    -2.059000000     3.837000000
O    -4.772000000     1.401000000     0.218000000
H    -4.297000000     0.570000000     0.206000000
H    -5.206000000     1.416000000     1.071000000
O    -4.462000000    -1.152000000     0.370000000
H    -4.310000000    -1.514000000     1.242000000
H    -4.984000000    -1.817000000    -0.078000000
O     5.316000000    -3.676000000     3.313000000
H     5.485000000    -3.779000000     2.377000000
H     4.374000000    -3.522000000     3.372000000
O     4.451000000    -1.440000000    -1.981000000
H     3.715000000    -2.048000000    -2.059000000
H     4.306000000    -0.798000000    -2.676000000
O    -2.547000000     3.022000000    -4.649000000
H    -3.415000000     3.333000000    -4.906000000
H    -2.587000000     2.961000000    -3.695000000
O     4.980000000    -1.477000000     6.395000000
H     4.224000000    -1.286000000     5.840000000
H     5.013000000    -2.433000000     6.434000000
O     0.238000000    -2.268000000     5.731000000
H    -0.048000000    -2.412000000     4.829000000
H    -0.231000000    -2.929000000     6.239000000
O     0.512000000    -4.745000000    -0.235000000
H     0.529000000    -4.209000000     0.558000000
H     0.502000000    -5.647000000     0.086000000
O    -3.495000000     2.675000000    -1.936000000
H    -3.980000000     3.500000000    -1.896000000
H    -3.976000000     2.086000000    -1.354000000
O    -2.578000000     1.161000000     4.258000000
H    -2.945000000     0.323000000     3.978000000
H    -1.958000000     0.932000000     4.950000000
O    -1.595000000     6.288000000    -1.605000000
H    -1.151000000     6.432000000    -2.441000000
H    -2.375000000     5.782000000    -1.833000000
O    -4.189000000     5.604000000    -2.158000000
H    -4.659000000     5.268000000    -2.921000000
H    -4.879000000     5.897000000    -1.562000000
O     2.279000000     5.274000000    -4.254000000
H     2.364000000     5.642000000    -5.134000000
H     1.400000000     4.894000000    -4.238000000
O     3.908000000     2.524000000    -0.949000000
H     3.404000000     2.895000000    -0.224000000
H     4.382000000     1.789000000    -0.559000000
O    -0.696000000    -4.184000000    -2.549000000
H    -0.567000000    -3.240000000    -2.452000000
H    -0.225000000    -4.567000000    -1.808000000
O    -0.324000000    -1.276000000    -2.788000000
H    -1.044000000    -0.679000000    -2.585000000
H     0.361000000    -1.047000000    -2.160000000
O     7.468000000    -1.504000000     2.690000000
H     6.636000000    -1.618000000     2.230000000
H     7.223000000    -1.419000000     3.611000000
O     0.187000000    -7.357000000     1.503000000
H    -0.370000000    -8.006000000     1.932000000
H     0.213000000    -7.631000000     0.586000000
O     2.418000000    -4.341000000     4.557000000
H     2.451000000    -5.210000000     4.157000000
H     1.956000000    -3.800000000     3.917000000
O    -1.431000000     0.947000000    -6.394000000
H    -1.246000000     0.942000000    -7.333000000
H    -1.626000000     1.863000000    -6.194000000
O    -3.153000000    -0.575000000    -4.530000000
H    -2.889000000     0.222000000    -4.988000000
H    -3.039000000    -1.272000000    -5.177000000
O     0.126000000     3.697000000    -4.366000000
H    -0.803000000     3.510000000    -4.233000000
H     0.581000000     3.000000000    -3.893000000
O    -2.527000000     2.759000000     2.072000000
H    -2.600000000     2.160000000     2.815000000
H    -2.970000000     2.305000000     1.355000000
O     0.117000000     3.209000000     1.949000000
H     0.348000000     2.763000000     1.134000000
H    -0.801000000     2.981000000     2.096000000
O     2.400000000    -3.475000000    -1.999000000
H     1.732000000    -3.862000000    -1.433000000
H     3.230000000    -3.754000000    -1.614000000
O     0.700000000     6.194000000    -0.178000000
H    -0.251000000     6.160000000    -0.279000000
H     1.013000000     6.585000000    -0.993000000
O    -3.434000000    -5.678000000    -0.636000000
H    -4.017000000    -4.981000000    -0.934000000
H    -2.946000000    -5.289000000     0.090000000
O     1.378000000     1.562000000    -3.328000000
H     1.107000000     1.010000000    -4.061000000
H     2.333000000     1.597000000    -3.394000000
O     3.282000000    -4.804000000     1.561000000
H     3.018000000    -5.470000000     2.196000000
H     2.717000000    -4.055000000     1.751000000
O     2.211000000    -6.736000000     3.213000000
H     1.491000000    -6.711000000     2.583000000
H     2.224000000    -7.640000000     3.527000000
O    -7.662000000     1.624000000    -0.404000000
H    -6.726000000     1.558000000    -0.593000000
H    -7.733000000     2.368000000     0.195000000
O     4.022000000     3.341000000    -3.403000000
H     3.985000000     3.149000000    -2.466000000
H     3.483000000     4.124000000    -3.509000000
O    -1.847000000    -5.268000000     1.800000000
H    -1.162000000    -5.814000000     1.415000000
H    -2.184000000    -5.787000000     2.530000000
O     5.105000000    -1.629000000     0.951000000
H     4.210000000    -1.701000000     1.284000000
H     5.033000000    -1.847000000     0.022000000
O    -1.199000000    -3.231000000     3.547000000
H    -0.461000000    -3.361000000     2.951000000
H    -1.811000000    -3.933000000     3.326000000
O     5.023000000     0.310000000     3.165000000
H     4.262000000    -0.089000000     3.586000000
H     5.434000000     0.830000000     3.856000000
O     0.667000000    -0.622000000    -5.424000000
H     0.382000000    -1.212000000    -4.727000000
H    -0.119000000    -0.126000000    -5.654000000
O     2.660000000     3.638000000     1.430000000
H     3.171000000     3.459000000     2.219000000
H     1.749000000     3.568000000     1.713000000
