158
-3015.68976
C     0.496000000    -0.956000000     1.063000000
H     0.957000000    -1.703000000     1.703000000
C     0.089000000    -1.359000000    -0.237000000
H     0.178000000    -2.415000000    -0.481000000
C    -0.377000000    -0.359000000    -1.140000000
H    -0.765000000    -0.721000000    -2.103000000
C    -0.397000000     0.994000000    -0.759000000
H    -0.858000000     1.633000000    -1.508000000
C    -0.077000000     1.420000000     0.535000000
H    -0.225000000     2.474000000     0.755000000
C     0.369000000     0.405000000     1.500000000
C     0.832000000     0.874000000     2.871000000
O     1.299000000     0.040000000     3.641000000
O     0.523000000     1.937000000     3.287000000
O     5.018000000     2.541000000     5.337000000
H     4.689000000     3.436000000     5.426000000
H     4.230000000     1.998000000     5.315000000
O     0.014000000     3.318000000     8.196000000
H     0.461000000     3.193000000     7.359000000
H     0.690000000     3.661000000     8.780000000
O     1.432000000     3.197000000     5.727000000
H     1.834000000     3.903000000     5.221000000
H     1.039000000     2.624000000     5.069000000
O    -4.153000000     1.945000000    -6.615000000
H    -4.591000000     2.791000000    -6.709000000
H    -4.250000000     1.726000000    -5.689000000
O    -1.214000000     0.649000000     4.918000000
H    -0.522000000     1.041000000     4.386000000
H    -0.821000000    -0.149000000     5.271000000
O     1.412000000     5.153000000    -4.103000000
H     1.930000000     4.352000000    -4.022000000
H     0.714000000     5.053000000    -3.456000000
O     1.507000000     4.556000000     1.125000000
H     0.974000000     5.144000000     0.588000000
H     1.285000000     3.679000000     0.812000000
O    -4.328000000    -2.442000000    -0.693000000
H    -3.742000000    -3.075000000    -0.277000000
H    -4.615000000    -2.875000000    -1.498000000
O    -2.941000000    -0.063000000     1.413000000
H    -2.564000000    -0.566000000     0.691000000
H    -2.243000000     0.536000000     1.678000000
O     3.158000000     0.578000000     5.573000000
H     2.523000000     0.260000000     4.931000000
H     2.631000000     1.058000000     6.212000000
O     2.033000000     2.526000000    -3.349000000
H     1.465000000     2.155000000    -4.025000000
H     2.397000000     1.764000000    -2.898000000
O    -0.837000000     5.134000000    -2.656000000
H    -1.747000000     4.847000000    -2.592000000
H    -0.593000000     5.362000000    -1.759000000
O    -2.978000000    -2.444000000     3.168000000
H    -3.222000000    -2.225000000     4.067000000
H    -3.188000000    -1.657000000     2.665000000
O    -3.752000000     2.209000000    -3.719000000
H    -4.050000000     1.451000000    -3.215000000
H    -3.970000000     2.962000000    -3.170000000
O     3.725000000    -0.524000000     2.334000000
H     4.262000000    -0.939000000     3.008000000
H     3.060000000    -0.039000000     2.822000000
O    -3.579000000     4.319000000    -1.953000000
H    -4.270000000     4.806000000    -2.402000000
H    -3.822000000     4.356000000    -1.028000000
O     2.465000000     0.087000000    -2.341000000
H     1.665000000    -0.314000000    -2.001000000
H     3.094000000     0.015000000    -1.623000000
O    -3.762000000    -4.091000000    -5.126000000
H    -3.993000000    -4.914000000    -5.559000000
H    -4.233000000    -3.420000000    -5.621000000
O     2.205000000    -5.750000000     2.357000000
H     3.087000000    -5.378000000     2.344000000
H     1.687000000    -5.118000000     2.855000000
O     2.751000000    -4.885000000    -2.092000000
H     3.295000000    -5.203000000    -1.371000000
H     2.009000000    -5.489000000    -2.117000000
O     2.861000000     0.218000000    -6.173000000
H     3.670000000    -0.292000000    -6.234000000
H     2.215000000    -0.301000000    -6.653000000
O     3.929000000     4.161000000     2.231000000
H     3.227000000     4.410000000     1.629000000
H     3.898000000     3.204000000     2.251000000
O    -2.693000000    -4.697000000    -0.880000000
H    -2.873000000    -5.597000000    -1.152000000
H    -2.239000000    -4.307000000    -1.626000000
O     4.887000000     0.521000000    -3.866000000
H     4.930000000    -0.290000000    -4.372000000
H     4.019000000     0.508000000    -3.464000000
O    -1.421000000     1.010000000    -6.712000000
H    -1.238000000     0.524000000    -7.516000000
H    -2.376000000     1.003000000    -6.640000000
O     0.689000000    -2.003000000     5.534000000
H     0.786000000    -2.805000000     5.020000000
H     1.101000000    -1.325000000     4.999000000
O    -0.737000000     1.799000000    -4.175000000
H    -0.958000000     1.787000000    -5.106000000
H    -1.569000000     1.967000000    -3.733000000
O    -3.289000000    -0.837000000    -5.427000000
H    -3.427000000    -1.243000000    -6.283000000
H    -2.365000000    -0.588000000    -5.427000000
O    -4.597000000     3.841000000     0.436000000
H    -5.425000000     4.202000000     0.120000000
H    -4.683000000     2.896000000     0.309000000
O    -0.259000000    -1.066000000    -4.656000000
H     0.567000000    -1.304000000    -4.235000000
H    -0.479000000    -0.211000000    -4.285000000
O    -2.891000000     5.303000000     1.903000000
H    -2.554000000     4.734000000     2.595000000
H    -3.669000000     4.850000000     1.578000000
O    -4.640000000    -0.276000000    -2.829000000
H    -4.397000000    -0.917000000    -2.160000000
H    -4.393000000    -0.690000000    -3.656000000
O     4.983000000     1.659000000     1.728000000
H     4.801000000     0.728000000     1.854000000
H     5.553000000     1.893000000     2.460000000
O    -1.897000000    -3.652000000    -3.236000000
H    -2.580000000    -3.766000000    -3.896000000
H    -1.313000000    -2.991000000    -3.608000000
O    -3.062000000     0.767000000     6.901000000
H    -2.231000000     0.664000000     6.438000000
H    -2.872000000     0.492000000     7.798000000
O     2.483000000     5.662000000     4.461000000
H     2.766000000     5.466000000     3.568000000
H     3.225000000     6.123000000     4.852000000
O     5.090000000    -1.933000000     4.243000000
H     5.850000000    -1.571000000     3.786000000
H     5.344000000    -1.932000000     5.166000000
O    -1.157000000    -2.244000000     7.553000000
H    -1.872000000    -2.725000000     7.138000000
H    -0.429000000    -2.317000000     6.936000000
O     0.406000000    -4.769000000     4.247000000
H     0.337000000    -5.695000000     4.479000000
H    -0.501000000    -4.471000000     4.176000000
O     2.144000000    -2.457000000    -3.977000000
H     2.537000000    -1.736000000    -3.486000000
H     2.188000000    -3.205000000    -3.381000000
O     4.296000000    -0.537000000    -0.282000000
H     3.991000000    -0.628000000     0.620000000
H     4.956000000     0.155000000    -0.244000000
O    -0.102000000    -3.557000000    -5.870000000
H    -0.874000000    -3.444000000    -6.424000000
H     0.003000000    -2.713000000    -5.431000000
O    -3.016000000    -4.702000000     1.752000000
H    -2.835000000    -3.848000000     2.145000000
H    -2.803000000    -4.590000000     0.826000000
O    -0.883000000     5.825000000    -0.067000000
H    -1.594000000     5.586000000     0.527000000
H    -0.597000000     6.686000000     0.237000000
O    -1.147000000     3.832000000     3.592000000
H    -1.732000000     3.360000000     4.186000000
H    -0.419000000     3.229000000     3.444000000
O    -0.210000000    -6.691000000    -0.724000000
H     0.649000000    -6.763000000    -0.309000000
H    -0.073000000    -7.007000000    -1.617000000
O    -0.926000000     5.957000000     5.435000000
H    -0.671000000     5.496000000     4.636000000
H    -0.394000000     5.555000000     6.123000000
O    -5.147000000    -3.686000000    -2.705000000
H    -5.727000000    -4.396000000    -2.428000000
H    -4.784000000    -3.985000000    -3.538000000
