158
-3011.45203
C    -0.395000000    -1.353000000     0.421000000
H    -0.776000000    -2.350000000     0.628000000
C    -1.213000000    -0.397000000    -0.189000000
H    -2.217000000    -0.680000000    -0.493000000
C    -0.705000000     0.786000000    -0.549000000
H    -1.377000000     1.630000000    -0.930000000
C     0.588000000     1.096000000    -0.243000000
H     1.048000000     2.033000000    -0.545000000
C     1.459000000     0.240000000     0.375000000
H     2.489000000     0.584000000     0.436000000
C     0.927000000    -1.007000000     0.772000000
C     1.813000000    -2.047000000     1.452000000
O     1.458000000    -3.206000000     1.663000000
O     2.892000000    -1.631000000     1.848000000
O     4.455000000    -4.324000000    -1.478000000
H     4.300000000    -4.633000000    -0.585000000
H     4.865000000    -5.067000000    -1.921000000
O    -4.556000000    -0.455000000    -2.025000000
H    -3.758000000    -0.763000000    -2.455000000
H    -4.349000000    -0.481000000    -1.091000000
O     2.014000000     2.436000000     3.791000000
H     2.223000000     2.733000000     4.677000000
H     2.822000000     2.027000000     3.479000000
O     3.750000000    -0.148000000     3.821000000
H     2.822000000    -0.087000000     4.047000000
H     3.764000000    -0.633000000     2.996000000
O    -0.399000000    -3.944000000     6.419000000
H    -0.171000000    -4.044000000     5.494000000
H    -1.340000000    -4.117000000     6.454000000
O    -2.190000000     5.619000000     1.952000000
H    -1.445000000     6.209000000     2.062000000
H    -1.864000000     4.766000000     2.236000000
O     4.970000000     0.914000000     6.022000000
H     4.460000000     0.365000000     5.426000000
H     4.646000000     1.801000000     5.866000000
O     5.815000000     1.179000000    -0.280000000
H     5.457000000     0.660000000    -1.001000000
H     6.348000000     0.560000000     0.218000000
O    -1.950000000     0.134000000     2.610000000
H    -2.384000000    -0.605000000     3.035000000
H    -1.164000000    -0.244000000     2.216000000
O    -3.448000000     1.772000000     0.971000000
H    -3.026000000     0.993000000     1.333000000
H    -3.975000000     2.116000000     1.692000000
O    -4.315000000    -1.514000000     0.648000000
H    -4.925000000    -1.138000000     1.282000000
H    -4.273000000    -2.442000000     0.877000000
O     6.441000000    -3.968000000     2.277000000
H     5.835000000    -3.846000000     3.008000000
H     6.119000000    -3.377000000     1.597000000
O     5.691000000    -0.205000000    -2.625000000
H     4.854000000    -0.405000000    -3.044000000
H     6.126000000     0.394000000    -3.232000000
O    -2.504000000    -4.887000000    -2.887000000
H    -2.611000000    -4.935000000    -1.937000000
H    -2.184000000    -3.999000000    -3.047000000
O    -2.421000000     2.577000000    -4.228000000
H    -3.038000000     3.104000000    -4.737000000
H    -2.405000000     2.993000000    -3.366000000
O     6.720000000    -1.323000000     4.293000000
H     6.608000000    -0.904000000     5.146000000
H     5.849000000    -1.651000000     4.070000000
O     1.360000000    -0.663000000     5.012000000
H     0.909000000    -1.459000000     4.731000000
H     1.392000000    -0.730000000     5.967000000
O     0.910000000    -3.878000000    -1.049000000
H     1.221000000    -3.705000000    -0.161000000
H     1.371000000    -4.674000000    -1.313000000
O    -2.811000000     4.798000000    -1.233000000
H    -3.671000000     4.480000000    -1.508000000
H    -2.763000000     4.582000000    -0.301000000
O    -1.544000000     6.671000000    -2.733000000
H    -1.240000000     6.629000000    -3.639000000
H    -1.898000000     5.799000000    -2.558000000
O    -7.016000000     1.686000000    -2.719000000
H    -7.640000000     0.987000000    -2.912000000
H    -6.173000000     1.239000000    -2.637000000
O    -5.313000000     3.908000000    -1.618000000
H    -5.679000000     3.213000000    -2.165000000
H    -5.939000000     4.003000000    -0.901000000
O    -2.456000000    -5.318000000     3.726000000
H    -1.858000000    -5.494000000     2.999000000
H    -3.196000000    -5.906000000     3.576000000
O     4.462000000     3.553000000    -1.396000000
H     3.604000000     3.748000000    -1.019000000
H     4.813000000     2.855000000    -0.842000000
O    -6.074000000     1.128000000     0.309000000
H    -6.370000000     2.023000000     0.474000000
H    -5.238000000     1.232000000    -0.145000000
O     1.760000000    -6.538000000    -1.298000000
H     1.207000000    -7.274000000    -1.037000000
H     2.155000000    -6.234000000    -0.481000000
O    -0.639000000    -2.864000000    -2.995000000
H    -0.699000000    -1.912000000    -2.924000000
H    -0.028000000    -3.118000000    -2.304000000
O     1.252000000    -0.426000000    -2.760000000
H     0.436000000    -0.261000000    -3.233000000
H     1.112000000    -0.037000000    -1.897000000
O     6.856000000    -0.666000000     1.469000000
H     7.040000000    -0.991000000     2.350000000
H     6.442000000    -1.404000000     1.023000000
O     4.430000000    -3.143000000     3.556000000
H     4.172000000    -4.048000000     3.729000000
H     3.706000000    -2.781000000     3.045000000
O    -0.889000000     3.070000000    -6.775000000
H    -1.328000000     3.737000000    -7.302000000
H    -1.389000000     3.043000000    -5.959000000
O    -1.034000000     0.058000000    -3.891000000
H    -1.508000000     0.881000000    -4.010000000
H    -1.482000000    -0.562000000    -4.467000000
O     1.999000000     4.623000000    -4.541000000
H     1.670000000     4.908000000    -5.394000000
H     1.731000000     3.706000000    -4.476000000
O    -1.101000000     3.178000000     1.913000000
H    -0.809000000     2.710000000     2.696000000
H    -1.797000000     2.629000000     1.552000000
O     1.603000000     3.891000000     1.575000000
H     1.824000000     3.120000000     2.098000000
H     0.675000000     4.043000000     1.753000000
O     3.707000000    -2.099000000    -3.147000000
H     2.821000000    -1.931000000    -2.825000000
H     3.992000000    -2.877000000    -2.669000000
O    -2.844000000    -2.366000000     3.222000000
H    -2.390000000    -3.207000000     3.267000000
H    -3.756000000    -2.575000000     3.424000000
O    -2.302000000    -5.779000000    -0.393000000
H    -3.039000000    -5.238000000    -0.110000000
H    -1.782000000    -5.909000000     0.400000000
O     2.379000000     1.203000000    -4.586000000
H     1.929000000     0.588000000    -4.006000000
H     3.218000000     0.782000000    -4.776000000
O     3.304000000    -4.769000000     0.906000000
H     3.251000000    -5.495000000     1.528000000
H     2.683000000    -4.122000000     1.240000000
O     2.573000000    -5.990000000     3.929000000
H     2.438000000    -6.542000000     3.160000000
H     3.102000000    -6.526000000     4.520000000
O    -0.722000000    -5.750000000     1.766000000
H     0.031000000    -5.159000000     1.775000000
H    -0.397000000    -6.558000000     2.164000000
O     5.237000000    -2.302000000     0.201000000
H     4.388000000    -2.116000000     0.603000000
H     5.023000000    -2.615000000    -0.678000000
O     0.520000000    -4.101000000     3.930000000
H     1.138000000    -4.782000000     4.197000000
H     0.785000000    -3.874000000     3.039000000
O     5.483000000     2.176000000     3.410000000
H     6.438000000     2.229000000     3.355000000
H     5.299000000     1.240000000     3.482000000
O    -5.232000000    -1.868000000    -4.243000000
H    -5.992000000    -2.448000000    -4.273000000
H    -5.225000000    -1.527000000    -3.349000000
O     4.065000000     5.025000000     1.175000000
H     4.461000000     4.497000000     1.869000000
H     3.181000000     4.672000000     1.081000000
O    -4.636000000    -4.307000000     0.044000000
H    -5.067000000    -4.594000000    -0.761000000
H    -5.350000000    -3.993000000     0.599000000
