158
-3056.13741
C     0.829000000    -0.551000000     1.025000000
H     1.623000000    -0.970000000     1.638000000
C     0.304000000    -1.236000000     0.010000000
H     0.470000000    -2.309000000    -0.056000000
C    -0.520000000    -0.649000000    -0.915000000
H    -0.818000000    -1.322000000    -1.807000000
C    -0.889000000     0.702000000    -0.786000000
H    -1.590000000     1.192000000    -1.456000000
C    -0.285000000     1.454000000     0.284000000
H    -0.684000000     2.464000000     0.328000000
C     0.587000000     0.849000000     1.209000000
C     1.323000000     1.703000000     2.223000000
O     2.018000000     1.159000000     3.049000000
O     1.038000000     2.897000000     2.253000000
O     6.068000000     3.330000000     4.851000000
H     6.684000000     2.881000000     4.273000000
H     5.266000000     2.809000000     4.799000000
O    -0.633000000     3.649000000     6.108000000
H    -0.305000000     2.820000000     5.760000000
H     0.144000000     4.087000000     6.456000000
O     1.329000000     6.311000000     0.316000000
H     1.024000000     7.156000000     0.648000000
H     2.107000000     6.523000000    -0.199000000
O     2.177000000     4.612000000     4.029000000
H     2.083000000     5.472000000     3.620000000
H     1.733000000     4.012000000     3.430000000
O     0.315000000     1.310000000     5.193000000
H     0.995000000     1.146000000     4.540000000
H     0.165000000     0.458000000     5.602000000
O    -0.724000000    -2.508000000     2.742000000
H    -0.817000000    -1.872000000     2.033000000
H    -1.515000000    -3.044000000     2.689000000
O     1.761000000    -3.824000000    -2.249000000
H     2.575000000    -3.976000000    -2.729000000
H     2.042000000    -3.648000000    -1.351000000
O     2.122000000     3.902000000     0.002000000
H     1.939000000     3.378000000     0.782000000
H     1.630000000     4.712000000     0.138000000
O    -3.624000000    -0.883000000    -3.227000000
H    -4.125000000    -1.208000000    -2.479000000
H    -3.952000000    -1.387000000    -3.972000000
O    -6.338000000     1.769000000    -0.460000000
H    -5.437000000     1.567000000    -0.208000000
H    -6.346000000     1.677000000    -1.413000000
O    -3.556000000     0.959000000    -0.129000000
H    -3.043000000     0.151000000    -0.119000000
H    -3.304000000     1.393000000    -0.944000000
O     2.084000000     4.406000000     7.092000000
H     2.099000000     5.363000000     7.112000000
H     2.381000000     4.180000000     6.210000000
O     3.573000000     2.115000000     5.062000000
H     3.066000000     1.484000000     4.552000000
H     3.237000000     2.969000000     4.789000000
O     2.529000000     2.456000000    -2.069000000
H     2.429000000     3.107000000    -1.374000000
H     1.636000000     2.295000000    -2.376000000
O    -4.848000000    -5.005000000    -1.671000000
H    -4.299000000    -5.708000000    -1.324000000
H    -4.425000000    -4.754000000    -2.492000000
O    -4.615000000    -1.766000000     1.401000000
H    -4.286000000    -1.059000000     1.957000000
H    -4.042000000    -2.508000000     1.593000000
O    -2.593000000     1.302000000    -4.412000000
H    -2.695000000     0.540000000    -3.842000000
H    -2.744000000     2.053000000    -3.836000000
O     4.169000000     0.775000000     1.553000000
H     4.473000000    -0.105000000     1.777000000
H     3.324000000     0.857000000     1.995000000
O    -3.220000000     2.859000000    -2.402000000
H    -3.782000000     3.546000000    -2.762000000
H    -2.728000000     3.294000000    -1.705000000
O    -3.267000000    -4.747000000    -3.943000000
H    -2.458000000    -4.273000000    -3.752000000
H    -3.305000000    -4.780000000    -4.899000000
O     1.795000000    -0.676000000    -2.779000000
H     1.208000000    -0.602000000    -2.026000000
H     2.657000000    -0.441000000    -2.436000000
O    -2.494000000    -0.741000000    -6.815000000
H    -3.274000000    -0.200000000    -6.696000000
H    -2.397000000    -0.817000000    -7.764000000
O     3.176000000    -3.846000000     0.104000000
H     4.027000000    -3.554000000     0.432000000
H     2.612000000    -3.854000000     0.877000000
O     4.766000000     5.088000000     1.519000000
H     4.410000000     5.625000000     0.811000000
H     4.017000000     4.581000000     1.834000000
O    -2.688000000    -3.662000000     0.919000000
H    -3.057000000    -4.521000000     1.123000000
H    -2.337000000    -3.756000000     0.034000000
O    -0.777000000    -6.352000000    -0.644000000
H    -0.328000000    -6.980000000    -0.079000000
H    -0.148000000    -6.162000000    -1.339000000
O    -1.895000000     5.430000000     4.528000000
H    -1.180000000     5.075000000     5.057000000
H    -2.150000000     6.235000000     4.979000000
O     2.504000000    -1.083000000     4.595000000
H     3.379000000    -1.441000000     4.451000000
H     2.443000000    -0.346000000     3.988000000
O     0.130000000     2.504000000    -4.392000000
H     0.739000000     1.931000000    -4.859000000
H    -0.736000000     2.157000000    -4.605000000
O    -0.773000000    -1.211000000    -4.562000000
H    -1.432000000    -0.818000000    -5.134000000
H    -0.067000000    -0.565000000    -4.530000000
O     1.849000000     0.597000000    -5.655000000
H     2.097000000    -0.295000000    -5.411000000
H     2.379000000     0.789000000    -6.428000000
O    -2.481000000     4.181000000    -0.056000000
H    -2.142000000     4.015000000     0.824000000
H    -3.390000000     4.446000000     0.084000000
O    -6.101000000     1.542000000    -2.984000000
H    -5.209000000     1.207000000    -3.081000000
H    -6.490000000     1.444000000    -3.853000000
O     6.718000000     1.969000000     2.457000000
H     5.787000000     1.829000000     2.283000000
H     7.142000000     1.845000000     1.608000000
O    -2.615000000     1.303000000     2.576000000
H    -2.696000000     1.149000000     1.635000000
H    -2.482000000     2.247000000     2.654000000
O    -0.860000000    -3.547000000    -2.884000000
H    -0.650000000    -2.740000000    -3.353000000
H    -0.012000000    -3.884000000    -2.595000000
O     5.525000000    -1.564000000     2.853000000
H     6.456000000    -1.621000000     2.638000000
H     5.478000000    -1.795000000     3.780000000
O    -0.008000000    -1.723000000     5.270000000
H    -0.360000000    -2.213000000     4.527000000
H     0.904000000    -1.554000000     5.034000000
O    -4.992000000    -2.026000000    -1.263000000
H    -5.078000000    -1.808000000    -0.335000000
H    -4.631000000    -2.912000000    -1.268000000
O     1.761000000    -3.758000000     2.632000000
H     0.992000000    -3.193000000     2.555000000
H     1.860000000    -3.902000000     3.573000000
O     2.412000000    -2.038000000    -4.827000000
H     2.174000000    -1.550000000    -4.038000000
H     2.802000000    -2.848000000    -4.499000000
O     4.170000000    -0.134000000    -1.351000000
H     3.864000000     0.043000000    -0.461000000
H     4.680000000     0.641000000    -1.587000000
O     0.877000000    -2.871000000    -6.974000000
H     1.141000000    -3.790000000    -7.028000000
H     1.456000000    -2.494000000    -6.312000000
O    -2.401000000    -3.454000000    -6.419000000
H    -1.508000000    -3.110000000    -6.390000000
H    -2.956000000    -2.676000000    -6.476000000
O     2.906000000     0.734000000     7.667000000
H     2.889000000     0.567000000     6.724000000
H     2.112000000     1.243000000     7.834000000
O    -0.423000000     5.870000000    -1.591000000
H    -1.113000000     5.443000000    -1.084000000
H     0.271000000     6.041000000    -0.954000000
O    -1.437000000     3.654000000     2.362000000
H    -1.648000000     4.065000000     3.201000000
H    -0.507000000     3.439000000     2.429000000
O     0.621000000    -6.526000000    -3.009000000
H     0.978000000    -5.678000000    -3.272000000
H     1.382000000    -7.105000000    -2.970000000
