158
-3009.96279
C     1.192000000     0.853000000     0.331000000
H     2.008000000     1.437000000     0.748000000
C    -0.029000000     0.983000000     0.950000000
H    -0.045000000     1.630000000     1.823000000
C    -1.067000000     0.142000000     0.590000000
H    -1.904000000    -0.014000000     1.275000000
C    -0.841000000    -0.818000000    -0.382000000
H    -1.675000000    -1.498000000    -0.537000000
C     0.343000000    -0.974000000    -1.168000000
H     0.312000000    -1.654000000    -2.017000000
C     1.355000000    -0.098000000    -0.763000000
C     2.645000000    -0.107000000    -1.605000000
O     2.788000000    -0.961000000    -2.424000000
O     3.340000000     0.859000000    -1.680000000
O    -4.865000000    -2.547000000    -2.435000000
H    -4.040000000    -3.032000000    -2.423000000
H    -4.688000000    -1.787000000    -2.989000000
O    -0.196000000    -0.723000000    -5.967000000
H     0.210000000    -1.006000000    -6.786000000
H     0.390000000    -1.050000000    -5.284000000
O    -3.246000000    -2.601000000     3.304000000
H    -4.149000000    -2.501000000     3.605000000
H    -3.284000000    -3.314000000     2.666000000
O    -2.425000000    -3.970000000    -2.970000000
H    -1.929000000    -3.761000000    -2.178000000
H    -1.928000000    -3.561000000    -3.679000000
O    -3.742000000     0.287000000     3.159000000
H    -3.002000000    -0.319000000     3.201000000
H    -4.504000000    -0.250000000     3.378000000
O    -1.351000000     3.856000000     2.300000000
H    -0.791000000     4.507000000     2.723000000
H    -1.259000000     3.072000000     2.841000000
O     4.860000000     2.976000000    -1.070000000
H     4.323000000     2.342000000    -1.545000000
H     4.229000000     3.590000000    -0.694000000
O    -5.799000000    -1.929000000     3.556000000
H    -6.068000000    -2.541000000     4.241000000
H    -6.595000000    -1.443000000     3.343000000
O     0.050000000    -0.801000000     4.486000000
H    -0.679000000    -1.343000000     4.788000000
H     0.524000000    -1.360000000     3.869000000
O    -1.368000000    -2.871000000     5.497000000
H    -1.861000000    -2.898000000     6.317000000
H    -2.039000000    -2.819000000     4.816000000
O     2.763000000     2.879000000    -3.700000000
H     2.580000000     2.210000000    -4.361000000
H     2.815000000     2.394000000    -2.877000000
O    -3.714000000     3.257000000    -1.454000000
H    -3.164000000     2.534000000    -1.758000000
H    -3.844000000     3.083000000    -0.522000000
O    -0.758000000    -5.545000000     3.810000000
H    -0.391000000    -4.680000000     3.626000000
H    -1.686000000    -5.463000000     3.591000000
O     4.002000000    -3.834000000    -2.338000000
H     4.305000000    -4.070000000    -1.461000000
H     3.612000000    -2.966000000    -2.231000000
O     7.682000000    -0.002000000    -3.478000000
H     8.024000000    -0.460000000    -2.710000000
H     6.747000000    -0.203000000    -3.480000000
O     0.378000000     4.765000000     0.182000000
H    -0.142000000     5.124000000    -0.536000000
H    -0.265000000     4.354000000     0.761000000
O     5.303000000    -0.982000000    -3.402000000
H     4.562000000    -0.657000000    -2.892000000
H     4.918000000    -1.614000000    -4.009000000
O    -2.089000000     1.139000000    -5.340000000
H    -1.389000000     0.548000000    -5.618000000
H    -1.872000000     1.356000000    -4.433000000
O    -3.381000000     5.256000000     2.910000000
H    -3.972000000     5.191000000     2.160000000
H    -2.551000000     4.899000000     2.593000000
O     5.916000000     0.170000000     3.516000000
H     6.261000000     0.005000000     2.638000000
H     5.238000000     0.833000000     3.386000000
O    -6.725000000     3.369000000    -0.034000000
H    -6.970000000     2.762000000    -0.732000000
H    -6.338000000     2.814000000     0.642000000
O    -3.997000000     1.548000000     6.095000000
H    -4.724000000     1.899000000     6.609000000
H    -4.418000000     1.050000000     5.394000000
O     1.765000000    -1.938000000     2.051000000
H     1.059000000    -1.669000000     1.463000000
H     2.562000000    -1.615000000     1.631000000
O     1.159000000     0.539000000     6.590000000
H     1.427000000    -0.175000000     7.168000000
H     0.992000000     0.116000000     5.748000000
O    -1.339000000     2.138000000     4.870000000
H    -2.167000000     1.660000000     4.906000000
H    -0.668000000     1.461000000     4.959000000
O     0.031000000     5.567000000     3.877000000
H    -0.445000000     5.320000000     4.670000000
H     0.708000000     6.171000000     4.182000000
O     4.429000000     2.289000000     2.683000000
H     4.270000000     2.877000000     3.421000000
H     4.369000000     2.851000000     1.911000000
O     0.829000000    -4.358000000     1.537000000
H     1.502000000    -4.984000000     1.806000000
H     1.211000000    -3.501000000     1.727000000
O     7.138000000    -3.626000000    -3.252000000
H     6.452000000    -4.115000000    -2.797000000
H     6.860000000    -2.712000000    -3.194000000
O     2.462000000     1.215000000    -5.935000000
H     2.245000000     0.348000000    -6.278000000
H     1.682000000     1.743000000    -6.106000000
O    -7.350000000    -0.088000000    -1.211000000
H    -7.060000000     0.274000000    -0.373000000
H    -7.283000000    -1.037000000    -1.097000000
O    -2.857000000    -4.938000000     1.490000000
H    -3.407000000    -5.355000000     0.826000000
H    -1.975000000    -4.963000000     1.121000000
O    -6.594000000     0.522000000     1.275000000
H    -5.637000000     0.517000000     1.271000000
H    -6.830000000     0.490000000     2.203000000
O     6.799000000     1.298000000     0.469000000
H     6.185000000     1.977000000     0.190000000
H     7.446000000     1.764000000     0.999000000
O     0.280000000    -4.279000000    -4.824000000
H     0.163000000    -4.270000000    -5.774000000
H     1.049000000    -3.729000000    -4.673000000
O    -6.957000000    -3.197000000    -0.493000000
H    -6.153000000    -3.019000000    -0.980000000
H    -6.656000000    -3.511000000     0.359000000
O     0.191000000     3.269000000    -3.012000000
H    -0.268000000     4.069000000    -2.757000000
H     0.898000000     3.570000000    -3.582000000
O    -0.930000000     4.480000000     6.287000000
H    -1.189000000     3.771000000     5.699000000
H    -0.279000000     4.083000000     6.867000000
O    -0.378000000    -4.290000000    -0.877000000
H     0.031000000    -5.090000000    -1.207000000
H     0.059000000    -4.124000000    -0.042000000
O     5.456000000     1.181000000    -5.736000000
H     5.034000000     0.573000000    -6.342000000
H     4.893000000     1.178000000    -4.962000000
O     5.696000000     3.942000000    -3.253000000
H     5.489000000     3.373000000    -2.512000000
H     4.962000000     3.826000000    -3.856000000
O     4.464000000    -2.905000000    -5.005000000
H     4.229000000    -3.535000000    -4.324000000
H     4.656000000    -3.443000000    -5.773000000
O    -3.741000000     2.163000000     1.110000000
H    -3.366000000     2.936000000     1.532000000
H    -3.577000000     1.449000000     1.727000000
O     4.093000000    -0.644000000     0.880000000
H     4.349000000    -0.186000000     0.079000000
H     4.620000000    -0.237000000     1.568000000
O     2.954000000     4.560000000     0.443000000
H     3.203000000     5.188000000     1.121000000
H     2.045000000     4.777000000     0.238000000
O     1.830000000    -1.740000000    -4.604000000
H     2.629000000    -1.952000000    -5.086000000
H     2.131000000    -1.535000000    -3.719000000
O    -1.574000000     1.394000000    -2.137000000
H    -1.179000000     1.087000000    -1.321000000
H    -1.083000000     2.185000000    -2.358000000
O     5.201000000    -3.391000000     0.461000000
H     5.116000000    -2.526000000     0.862000000
H     6.124000000    -3.619000000     0.576000000
