158
-3009.79815
C     1.165000000    -0.095000000     0.870000000
H     2.072000000    -0.297000000     1.435000000
C     0.735000000    -1.073000000     0.003000000
H     1.257000000    -2.026000000     0.001000000
C    -0.409000000    -0.852000000    -0.750000000
H    -0.794000000    -1.652000000    -1.248000000
C    -1.009000000     0.403000000    -0.755000000
H    -1.925000000     0.464000000    -1.336000000
C    -0.456000000     1.481000000    -0.030000000
H    -1.015000000     2.412000000     0.037000000
C     0.571000000     1.174000000     0.885000000
C     1.003000000     2.108000000     1.946000000
O     1.384000000     1.659000000     2.978000000
O     0.762000000     3.278000000     1.975000000
O     1.793000000     1.080000000     7.208000000
H     1.955000000     2.024000000     7.214000000
H     2.305000000     0.754000000     6.468000000
O    -0.660000000     4.737000000     5.166000000
H    -0.721000000     3.783000000     5.104000000
H     0.113000000     4.893000000     5.707000000
O     1.569000000     7.400000000     0.909000000
H     0.893000000     7.622000000     1.550000000
H     1.796000000     8.236000000     0.502000000
O     2.904000000     6.617000000     3.140000000
H     3.565000000     7.297000000     3.267000000
H     2.467000000     6.857000000     2.322000000
O    -0.307000000     1.638000000     4.829000000
H     0.436000000     1.595000000     4.228000000
H    -1.012000000     2.028000000     4.313000000
O    -0.771000000    -1.506000000     2.595000000
H    -0.668000000    -0.629000000     2.226000000
H    -1.075000000    -2.040000000     1.861000000
O     2.819000000    -4.525000000    -2.470000000
H     2.669000000    -5.429000000    -2.744000000
H     3.657000000    -4.551000000    -2.007000000
O     1.357000000     4.743000000    -0.119000000
H     1.099000000     4.163000000     0.597000000
H     1.527000000     5.585000000     0.304000000
O    -5.776000000     0.587000000    -3.504000000
H    -6.491000000    -0.045000000    -3.571000000
H    -4.981000000     0.057000000    -3.563000000
O    -3.693000000     2.335000000     1.105000000
H    -3.805000000     1.426000000     0.828000000
H    -3.874000000     2.849000000     0.318000000
O     3.363000000     3.716000000     3.379000000
H     2.713000000     3.017000000     3.439000000
H     2.855000000     4.498000000     3.164000000
O     2.002000000     4.145000000    -2.526000000
H     1.783000000     4.427000000    -1.637000000
H     1.291000000     3.553000000    -2.771000000
O    -3.411000000    -3.452000000    -2.497000000
H    -3.943000000    -4.111000000    -2.052000000
H    -2.596000000    -3.906000000    -2.711000000
O    -2.851000000     2.621000000    -4.102000000
H    -3.268000000     2.112000000    -4.797000000
H    -2.865000000     2.041000000    -3.340000000
O     4.282000000     3.976000000     0.684000000
H     4.164000000     4.561000000     1.433000000
H     3.439000000     3.992000000     0.232000000
O    -3.943000000     3.891000000    -1.289000000
H    -3.787000000     4.230000000    -2.170000000
H    -4.020000000     4.672000000    -0.742000000
O     4.723000000     0.734000000     6.633000000
H     4.901000000     1.640000000     6.884000000
H     4.808000000     0.728000000     5.680000000
O    -3.397000000    -0.884000000    -3.504000000
H    -3.471000000    -1.668000000    -2.960000000
H    -3.023000000    -1.198000000    -4.327000000
O     6.020000000    -0.874000000    -1.216000000
H     6.712000000    -0.362000000    -0.797000000
H     5.807000000    -1.555000000    -0.578000000
O    -6.420000000    -3.394000000     0.137000000
H    -6.987000000    -3.792000000     0.797000000
H    -5.617000000    -3.915000000     0.165000000
O    -4.162000000    -3.768000000    -5.673000000
H    -4.032000000    -4.715000000    -5.619000000
H    -3.526000000    -3.404000000    -5.058000000
O     0.034000000     0.068000000    -4.123000000
H    -0.494000000     0.190000000    -3.334000000
H    -0.526000000    -0.440000000    -4.710000000
O     4.689000000    -2.380000000     0.554000000
H     4.324000000    -1.527000000     0.789000000
H     5.059000000    -2.715000000     1.371000000
O    -1.095000000     1.633000000     7.483000000
H    -0.865000000     1.854000000     6.581000000
H    -0.328000000     1.169000000     7.820000000
O     5.268000000    -4.661000000    -1.090000000
H     5.457000000    -3.855000000    -0.610000000
H     5.682000000    -5.351000000    -0.572000000
O    -2.347000000    -3.219000000     0.465000000
H    -2.975000000    -2.903000000     1.116000000
H    -2.859000000    -3.305000000    -0.339000000
O    -0.327000000    -4.565000000     1.755000000
H    -1.000000000    -4.242000000     1.157000000
H     0.485000000    -4.518000000     1.250000000
O     2.970000000    -0.300000000     4.076000000
H     2.398000000     0.363000000     3.690000000
H     3.854000000    -0.028000000     3.828000000
O     0.325000000     2.806000000    -4.398000000
H     0.536000000     1.904000000    -4.157000000
H    -0.632000000     2.826000000    -4.431000000
O     2.827000000    -0.606000000    -3.803000000
H     1.904000000    -0.738000000    -4.023000000
H     2.960000000     0.338000000    -3.889000000
O    -3.567000000     5.650000000     0.863000000
H    -2.911000000     5.019000000     1.161000000
H    -3.357000000     6.455000000     1.335000000
O    -1.867000000    -6.392000000    -0.839000000
H    -0.921000000    -6.528000000    -0.786000000
H    -2.050000000    -6.348000000    -1.778000000
O    -2.703000000     2.445000000     3.776000000
H    -3.211000000     1.735000000     3.385000000
H    -2.586000000     3.076000000     3.066000000
O     0.978000000    -2.748000000    -3.043000000
H     1.009000000    -2.025000000    -2.417000000
H     1.544000000    -3.419000000    -2.662000000
O    -4.421000000    -5.407000000    -0.078000000
H    -3.583000000    -5.865000000    -0.142000000
H    -4.701000000    -5.545000000     0.827000000
O    -1.154000000    -4.523000000    -3.484000000
H    -0.638000000    -5.302000000    -3.689000000
H    -0.508000000    -3.875000000    -3.204000000
O     5.676000000     0.333000000     4.275000000
H     5.772000000    -0.573000000     3.983000000
H     5.555000000     0.833000000     3.467000000
O    -1.281000000    -0.713000000     5.148000000
H    -1.111000000    -1.051000000     4.269000000
H    -0.722000000     0.061000000     5.219000000
O     1.515000000    -2.788000000     4.148000000
H     0.687000000    -2.574000000     3.717000000
H     2.028000000    -1.981000000     4.094000000
O     4.926000000    -2.308000000    -3.206000000
H     4.103000000    -1.821000000    -3.262000000
H     5.403000000    -1.891000000    -2.489000000
O     5.402000000     1.362000000     1.868000000
H     4.827000000     2.120000000     1.761000000
H     5.937000000     1.355000000     1.074000000
O     1.233000000    -2.964000000    -5.768000000
H     1.975000000    -3.568000000    -5.809000000
H     1.122000000    -2.784000000    -4.835000000
O    -4.310000000    -2.135000000     1.974000000
H    -4.890000000    -1.536000000     1.504000000
H    -4.566000000    -2.046000000     2.892000000
O    -1.826000000    -1.185000000    -5.906000000
H    -1.240000000    -1.664000000    -6.493000000
H    -2.599000000    -0.999000000    -6.438000000
O     4.321000000     3.451000000     5.904000000
H     4.127000000     3.390000000     4.969000000
H     3.601000000     3.969000000     6.265000000
O    -0.992000000     7.252000000    -0.959000000
H    -0.763000000     6.330000000    -0.847000000
H    -1.484000000     7.475000000    -0.169000000
O    -1.582000000     4.729000000     2.548000000
H    -1.294000000     5.150000000     3.358000000
H    -0.876000000     4.120000000     2.331000000
O     2.102000000    -4.487000000     0.394000000
H     2.133000000    -5.225000000    -0.215000000
H     2.750000000    -3.870000000     0.056000000
