158
-3020.86115
C     1.349000000     0.311000000     0.523000000
H     2.369000000     0.300000000     0.898000000
C     1.070000000    -0.581000000    -0.485000000
H     1.876000000    -1.188000000    -0.888000000
C    -0.198000000    -0.740000000    -0.991000000
H    -0.421000000    -1.370000000    -1.869000000
C    -1.238000000    -0.027000000    -0.336000000
H    -2.241000000    -0.082000000    -0.750000000
C    -0.979000000     0.772000000     0.836000000
H    -1.805000000     1.390000000     1.180000000
C     0.377000000     0.940000000     1.226000000
C     0.639000000     1.811000000     2.435000000
O     1.703000000     2.280000000     2.673000000
O    -0.320000000     2.153000000     3.043000000
O    -1.499000000    -4.248000000    -1.668000000
H    -0.578000000    -4.491000000    -1.576000000
H    -1.847000000    -4.285000000    -0.776000000
O    -0.941000000     5.124000000     6.110000000
H    -0.029000000     4.863000000     6.239000000
H    -0.985000000     6.017000000     6.450000000
O     2.358000000    -2.211000000    -6.086000000
H     1.813000000    -2.143000000    -5.302000000
H     2.021000000    -2.980000000    -6.546000000
O     0.545000000    -5.137000000    -6.100000000
H    -0.082000000    -4.490000000    -5.777000000
H     0.199000000    -5.402000000    -6.952000000
O    -2.703000000     1.874000000     4.199000000
H    -1.863000000     2.016000000     3.764000000
H    -3.007000000     2.752000000     4.427000000
O    -4.568000000    -0.053000000     3.384000000
H    -5.262000000     0.417000000     2.922000000
H    -4.026000000     0.636000000     3.768000000
O     2.190000000     1.838000000     5.461000000
H     2.049000000     2.142000000     4.564000000
H     1.313000000     1.636000000     5.786000000
O    -3.506000000     3.862000000     1.682000000
H    -2.786000000     3.907000000     1.052000000
H    -3.155000000     4.265000000     2.476000000
O    -0.230000000     2.436000000    -1.694000000
H    -0.486000000     1.703000000    -1.134000000
H     0.712000000     2.325000000    -1.820000000
O    -1.531000000     4.210000000     0.046000000
H    -1.325000000     5.145000000     0.058000000
H    -0.961000000     3.848000000    -0.632000000
O    -1.011000000     4.757000000     3.105000000
H    -0.595000000     5.379000000     2.508000000
H    -0.476000000     3.966000000     3.037000000
O     0.545000000    -2.579000000    -3.824000000
H     0.543000000    -2.940000000    -2.938000000
H    -0.166000000    -3.039000000    -4.272000000
O    -0.140000000     0.064000000    -3.925000000
H    -0.157000000     0.373000000    -3.020000000
H     0.018000000    -0.877000000    -3.854000000
O    -2.871000000     0.568000000    -3.772000000
H    -2.016000000     0.497000000    -4.197000000
H    -3.500000000     0.376000000    -4.467000000
O     2.477000000     4.585000000    -1.909000000
H     2.069000000     4.643000000    -1.045000000
H     2.591000000     3.647000000    -2.059000000
O    -3.421000000    -3.420000000    -3.422000000
H    -2.600000000    -3.519000000    -2.939000000
H    -3.875000000    -2.704000000    -2.978000000
O     5.194000000    -1.248000000    -3.898000000
H     4.439000000    -0.659000000    -3.912000000
H     5.919000000    -0.717000000    -4.225000000
O    -5.877000000     1.821000000    -3.215000000
H    -6.332000000     2.388000000    -3.837000000
H    -5.306000000     2.413000000    -2.725000000
O     0.168000000     1.489000000     7.573000000
H     0.187000000     1.862000000     8.455000000
H    -0.759000000     1.481000000     7.336000000
O    -1.018000000    -2.317000000     2.662000000
H    -0.544000000    -2.421000000     1.837000000
H    -1.787000000    -1.795000000     2.433000000
O     3.115000000     7.294000000     2.916000000
H     3.028000000     7.278000000     1.962000000
H     2.588000000     6.554000000     3.217000000
O    -2.912000000    -4.193000000     0.563000000
H    -3.736000000    -4.601000000     0.295000000
H    -3.176000000    -3.367000000     0.969000000
O     7.253000000    -0.292000000     2.519000000
H     7.224000000     0.157000000     3.364000000
H     6.553000000     0.115000000     2.008000000
O     4.219000000    -1.621000000     3.582000000
H     3.665000000    -2.132000000     2.991000000
H     4.426000000    -0.827000000     3.089000000
O     4.307000000     0.428000000    -0.838000000
H     4.208000000    -0.488000000    -0.578000000
H     5.040000000     0.748000000    -0.312000000
O     3.694000000    -5.099000000    -3.234000000
H     3.763000000    -4.823000000    -4.148000000
H     4.226000000    -4.467000000    -2.751000000
O    -3.736000000    -1.908000000     1.593000000
H    -3.873000000    -1.222000000     2.247000000
H    -4.562000000    -1.947000000     1.110000000
O     1.003000000    -5.352000000    -1.900000000
H     1.051000000    -5.623000000    -0.983000000
H     1.864000000    -5.569000000    -2.259000000
O     5.977000000     2.124000000     1.322000000
H     6.616000000     2.031000000     0.615000000
H     6.120000000     3.008000000     1.659000000
O     2.433000000     1.911000000    -2.214000000
H     2.542000000     1.280000000    -2.926000000
H     2.968000000     1.562000000    -1.501000000
O    -1.495000000    -3.651000000    -5.283000000
H    -1.791000000    -3.197000000    -6.072000000
H    -2.240000000    -3.600000000    -4.684000000
O     3.932000000    -0.206000000     6.026000000
H     4.274000000    -0.780000000     5.340000000
H     3.562000000     0.539000000     5.551000000
O     2.723000000    -3.611000000     1.961000000
H     2.130000000    -4.199000000     2.428000000
H     3.338000000    -4.194000000     1.516000000
O    -1.970000000     3.260000000    -3.738000000
H    -2.318000000     2.387000000    -3.918000000
H    -1.180000000     3.102000000    -3.221000000
O    -3.910000000     4.556000000    -1.635000000
H    -2.969000000     4.430000000    -1.517000000
H    -4.313000000     3.886000000    -1.082000000
O    -3.255000000    -6.317000000    -2.448000000
H    -2.631000000    -5.634000000    -2.207000000
H    -3.389000000    -6.199000000    -3.389000000
O     2.433000000     4.806000000     3.700000000
H     2.314000000     3.869000000     3.857000000
H     3.382000000     4.924000000     3.664000000
O     1.334000000     0.860000000    -6.190000000
H     0.928000000     0.780000000    -5.327000000
H     0.699000000     0.468000000    -6.790000000
O     1.530000000     4.320000000     0.554000000
H     1.005000000     5.033000000     0.916000000
H     1.726000000     3.761000000     1.305000000
O    -2.627000000     1.074000000     6.757000000
H    -2.522000000     1.320000000     5.838000000
H    -3.396000000     1.562000000     7.050000000
O     4.392000000    -2.071000000     0.309000000
H     5.282000000    -2.284000000     0.591000000
H     3.827000000    -2.547000000     0.918000000
O    -4.597000000    -0.311000000    -1.931000000
H    -5.448000000    -0.120000000    -2.323000000
H    -3.990000000     0.281000000    -2.374000000
O     5.077000000    -3.151000000    -1.990000000
H     5.108000000    -2.443000000    -2.633000000
H     4.957000000    -2.707000000    -1.150000000
O    -6.175000000    -0.973000000     0.296000000
H    -6.539000000    -1.817000000     0.563000000
H    -5.601000000    -1.182000000    -0.441000000
O     4.479000000    -5.013000000     0.271000000
H     4.620000000    -4.546000000    -0.553000000
H     3.804000000    -5.661000000     0.067000000
O     4.139000000     0.983000000     2.829000000
H     4.849000000     1.509000000     2.459000000
H     3.393000000     1.581000000     2.869000000
O    -3.267000000     5.545000000     4.363000000
H    -2.433000000     5.144000000     4.119000000
H    -3.204000000     5.672000000     5.309000000
O    -4.659000000     2.362000000    -0.582000000
H    -4.784000000     1.413000000    -0.594000000
H    -4.215000000     2.535000000     0.249000000
