158
-3014.04036
C     1.290000000     0.641000000     0.207000000
H     2.333000000     0.947000000     0.196000000
C     0.954000000    -0.226000000    -0.808000000
H     1.670000000    -0.583000000    -1.544000000
C    -0.283000000    -0.849000000    -0.842000000
H    -0.498000000    -1.592000000    -1.595000000
C    -1.215000000    -0.489000000     0.130000000
H    -2.183000000    -0.973000000     0.028000000
C    -0.926000000     0.567000000     0.978000000
H    -1.722000000     0.836000000     1.667000000
C     0.319000000     1.209000000     1.022000000
C     0.708000000     2.216000000     2.113000000
O     1.773000000     2.751000000     2.148000000
O    -0.098000000     2.499000000     2.968000000
O     0.705000000    -5.918000000    -1.047000000
H     0.507000000    -6.096000000    -0.127000000
H     0.746000000    -6.784000000    -1.454000000
O    -2.380000000    -2.631000000    -3.790000000
H    -1.585000000    -3.106000000    -3.548000000
H    -2.915000000    -2.638000000    -2.996000000
O    -2.521000000     3.792000000     3.024000000
H    -1.640000000     3.485000000     2.811000000
H    -2.530000000     4.707000000     2.743000000
O    -4.418000000     2.373000000     1.705000000
H    -4.068000000     2.475000000     0.820000000
H    -3.751000000     2.760000000     2.272000000
O     2.106000000     3.504000000     4.663000000
H     1.558000000     3.269000000     3.915000000
H     1.838000000     4.396000000     4.886000000
O    -0.352000000     3.011000000    -1.272000000
H     0.191000000     2.227000000    -1.356000000
H    -1.101000000     2.845000000    -1.845000000
O    -1.418000000     5.710000000    -1.205000000
H    -0.496000000     5.963000000    -1.165000000
H    -1.407000000     4.754000000    -1.160000000
O     0.064000000     5.371000000     1.963000000
H     0.879000000     5.459000000     2.458000000
H    -0.039000000     4.427000000     1.839000000
O     2.130000000    -2.526000000    -3.481000000
H     2.964000000    -2.984000000    -3.588000000
H     1.953000000    -2.567000000    -2.541000000
O    -2.319000000    -4.864000000     0.709000000
H    -1.408000000    -4.644000000     0.904000000
H    -2.480000000    -5.671000000     1.199000000
O     1.065000000    -0.946000000    -5.581000000
H     1.272000000    -0.042000000    -5.348000000
H     1.438000000    -1.469000000    -4.872000000
O    -1.778000000    -0.207000000    -4.749000000
H    -1.130000000    -0.395000000    -5.428000000
H    -1.998000000    -1.064000000    -4.383000000
O     3.708000000     3.882000000    -3.149000000
H     3.437000000     4.414000000    -2.401000000
H     3.505000000     2.983000000    -2.890000000
O    -4.546000000    -1.177000000    -5.844000000
H    -4.811000000    -1.608000000    -5.032000000
H    -3.970000000    -0.466000000    -5.561000000
O     4.665000000    -0.047000000    -4.785000000
H     4.153000000    -0.639000000    -5.337000000
H     5.530000000    -0.028000000    -5.195000000
O    -0.959000000     4.465000000     6.773000000
H    -1.593000000     4.201000000     7.440000000
H    -0.790000000     3.666000000     6.274000000
O    -1.177000000    -1.714000000     3.791000000
H    -2.069000000    -1.442000000     3.575000000
H    -0.641000000    -1.361000000     3.081000000
O     3.298000000     7.574000000     0.546000000
H     3.115000000     6.648000000     0.701000000
H     4.253000000     7.631000000     0.533000000
O    -4.006000000    -4.007000000    -1.401000000
H    -4.952000000    -4.088000000    -1.278000000
H    -3.627000000    -4.512000000    -0.681000000
O     3.684000000    -0.317000000     3.473000000
H     3.230000000    -0.877000000     2.843000000
H     3.877000000     0.484000000     2.986000000
O     3.647000000     0.968000000    -2.611000000
H     3.838000000     0.550000000    -3.451000000
H     4.034000000     0.383000000    -1.960000000
O    -4.993000000    -0.205000000     2.581000000
H    -4.851000000     0.660000000     2.197000000
H    -5.179000000    -0.772000000     1.832000000
O    -1.183000000    -4.839000000    -2.763000000
H    -1.992000000    -5.078000000    -2.311000000
H    -0.487000000    -5.069000000    -2.147000000
O     1.008000000     5.920000000     4.718000000
H     0.181000000     5.439000000     4.758000000
H     0.775000000     6.817000000     4.957000000
O     0.210000000    -3.108000000    -6.891000000
H    -0.696000000    -2.834000000    -7.036000000
H     0.662000000    -2.308000000    -6.623000000
O     0.145000000    -4.421000000     1.862000000
H     0.877000000    -3.816000000     1.980000000
H    -0.023000000    -4.767000000     2.739000000
O     5.626000000     3.287000000     3.590000000
H     6.446000000     3.497000000     3.145000000
H     5.895000000     2.976000000     4.455000000
O     2.228000000     0.944000000     5.536000000
H     2.565000000     0.480000000     4.770000000
H     2.205000000     1.863000000     5.268000000
O     2.269000000    -2.085000000     1.683000000
H     1.560000000    -1.913000000     1.062000000
H     2.883000000    -2.635000000     1.197000000
O    -2.417000000     1.888000000    -2.796000000
H    -2.255000000     0.946000000    -2.853000000
H    -2.516000000     2.169000000    -3.705000000
O    -4.016000000    -5.158000000    -4.885000000
H    -3.330000000    -4.534000000    -4.645000000
H    -4.401000000    -4.794000000    -5.683000000
O     3.317000000     4.848000000     2.389000000
H     2.775000000     4.068000000     2.507000000
H     4.163000000     4.612000000     2.771000000
O    -2.846000000     0.135000000     6.040000000
H    -2.498000000    -0.254000000     6.842000000
H    -2.209000000     0.810000000     5.805000000
O     4.465000000    -3.403000000     0.605000000
H     5.187000000    -2.856000000     0.913000000
H     4.893000000    -4.150000000     0.186000000
O    -4.359000000     3.065000000     5.164000000
H    -3.621000000     3.657000000     5.016000000
H    -3.967000000     2.192000000     5.179000000
O    -5.210000000    -1.598000000     0.168000000
H    -4.585000000    -2.318000000     0.253000000
H    -4.991000000    -1.188000000    -0.669000000
O     3.627000000     4.364000000     7.014000000
H     2.944000000     4.033000000     6.431000000
H     4.309000000     3.693000000     6.991000000
O     2.732000000     4.652000000    -0.221000000
H     3.037000000     4.736000000     0.683000000
H     2.111000000     3.924000000    -0.197000000
O    -0.731000000     1.744000000     5.447000000
H    -0.042000000     1.243000000     5.883000000
H    -0.341000000     2.015000000     4.616000000
O     4.799000000     0.264000000    -0.208000000
H     5.157000000    -0.423000000     0.353000000
H     4.637000000     0.997000000     0.385000000
O    -5.172000000    -0.162000000    -2.128000000
H    -5.248000000    -1.015000000    -2.555000000
H    -5.236000000     0.471000000    -2.843000000
O     0.565000000    -6.946000000    -4.354000000
H    -0.204000000    -6.952000000    -4.924000000
H     0.502000000    -6.120000000    -3.875000000
O     5.531000000    -2.966000000    -4.555000000
H     5.027000000    -2.216000000    -4.239000000
H     6.342000000    -2.940000000    -4.046000000
O    -5.637000000    -2.402000000    -3.349000000
H    -5.974000000    -3.182000000    -2.909000000
H    -6.418000000    -1.891000000    -3.561000000
O     3.471000000    -5.097000000    -2.374000000
H     2.583000000    -5.243000000    -2.048000000
H     3.683000000    -5.895000000    -2.858000000
O     4.266000000     1.791000000     1.900000000
H     4.739000000     2.294000000     2.563000000
H     3.430000000     2.248000000     1.805000000
O    -3.708000000     3.055000000    -0.848000000
H    -3.065000000     2.694000000    -1.458000000
H    -4.322000000     3.535000000    -1.403000000
O    -3.704000000    -3.467000000     2.798000000
H    -3.303000000    -3.811000000     1.999000000
H    -3.158000000    -3.808000000     3.506000000
