158
-3035.34423
C     1.411000000    -0.445000000     0.029000000
H     2.389000000    -0.904000000     0.147000000
C     0.298000000    -1.258000000    -0.196000000
H     0.506000000    -2.325000000    -0.186000000
C    -0.977000000    -0.752000000    -0.221000000
H    -1.870000000    -1.407000000    -0.256000000
C    -1.130000000     0.620000000     0.065000000
H    -2.131000000     1.038000000     0.136000000
C    -0.062000000     1.462000000     0.167000000
H    -0.195000000     2.500000000     0.461000000
C     1.230000000     0.941000000     0.170000000
C     2.370000000     1.832000000     0.592000000
O     3.514000000     1.412000000     0.460000000
O     2.174000000     3.046000000     0.561000000
O     0.239000000    -4.426000000    -2.256000000
H     0.253000000    -5.253000000    -1.774000000
H    -0.574000000    -4.003000000    -1.983000000
O    -0.989000000    -1.303000000     2.734000000
H    -1.051000000    -2.258000000     2.759000000
H    -0.917000000    -1.093000000     1.803000000
O    -2.470000000    -0.699000000    -6.180000000
H    -1.771000000    -1.054000000    -5.631000000
H    -2.214000000    -0.929000000    -7.073000000
O    -4.508000000    -0.214000000     2.894000000
H    -5.219000000    -0.760000000     2.558000000
H    -4.657000000     0.643000000     2.496000000
O     1.084000000    -6.602000000    -0.913000000
H     1.144000000    -7.306000000    -1.558000000
H     0.648000000    -7.003000000    -0.161000000
O     1.293000000     4.598000000     4.024000000
H     2.215000000     4.346000000     3.993000000
H     1.260000000     5.445000000     3.579000000
O    -2.468000000     3.814000000     2.056000000
H    -1.655000000     4.317000000     2.020000000
H    -2.235000000     3.016000000     2.531000000
O    -4.954000000     2.141000000     1.837000000
H    -5.542000000     2.660000000     1.288000000
H    -4.081000000     2.480000000     1.639000000
O     1.616000000     1.893000000     3.727000000
H     1.222000000     2.753000000     3.876000000
H     1.283000000     1.350000000     4.441000000
O    -3.453000000     4.965000000    -0.420000000
H    -3.109000000     4.585000000     0.388000000
H    -4.221000000     5.465000000    -0.142000000
O    -4.440000000    -5.289000000     0.346000000
H    -5.361000000    -5.146000000     0.564000000
H    -4.020000000    -4.446000000     0.518000000
O    -5.300000000    -1.938000000    -1.675000000
H    -5.622000000    -2.840000000    -1.693000000
H    -5.197000000    -1.702000000    -2.597000000
O     0.708000000     5.204000000    -0.221000000
H     0.561000000     5.137000000    -1.164000000
H     1.175000000     4.401000000     0.006000000
O     7.095000000     3.537000000     0.833000000
H     7.010000000     3.041000000     1.647000000
H     7.155000000     2.869000000     0.150000000
O    -0.783000000     6.243000000     1.817000000
H    -0.401000000     5.672000000     1.151000000
H    -0.031000000     6.662000000     2.234000000
O     6.252000000     2.548000000    -2.381000000
H     6.724000000     1.814000000    -1.990000000
H     5.379000000     2.508000000    -1.989000000
O    -1.585000000     5.583000000    -2.736000000
H    -2.262000000     5.534000000    -2.060000000
H    -1.244000000     4.690000000    -2.798000000
O    -2.805000000     1.772000000    -4.740000000
H    -2.997000000     2.348000000    -5.480000000
H    -2.659000000     0.913000000    -5.137000000
O    -1.890000000     1.311000000     3.129000000
H    -2.701000000     0.807000000     3.060000000
H    -1.198000000     0.650000000     3.155000000
O     7.624000000    -0.138000000    -1.839000000
H     8.448000000    -0.584000000    -1.642000000
H     7.247000000     0.060000000    -0.982000000
O     3.796000000    -2.851000000     1.670000000
H     3.882000000    -2.120000000     2.281000000
H     4.463000000    -2.685000000     1.003000000
O    -5.795000000    -0.335000000    -4.081000000
H    -6.600000000    -0.679000000    -3.694000000
H    -6.062000000    -0.017000000    -4.944000000
O     4.377000000     4.079000000     1.708000000
H     5.018000000     3.787000000     1.059000000
H     3.528000000     3.920000000     1.294000000
O     2.322000000    -3.178000000    -3.705000000
H     1.571000000    -3.534000000    -3.231000000
H     2.285000000    -2.236000000    -3.540000000
O     1.395000000    -4.382000000     1.322000000
H     1.293000000    -4.555000000     0.386000000
H     2.125000000    -3.765000000     1.373000000
O    -6.505000000     0.312000000    -0.765000000
H    -5.735000000     0.841000000    -0.972000000
H    -6.286000000    -0.564000000    -1.084000000
O     4.175000000     4.903000000     4.886000000
H     4.834000000     4.472000000     5.431000000
H     4.357000000     4.593000000     3.999000000
O    -0.446000000    -2.081000000    -4.842000000
H     0.109000000    -1.459000000    -4.371000000
H    -0.383000000    -2.890000000    -4.334000000
O    -0.767000000    -4.209000000     2.680000000
H    -1.319000000    -4.878000000     2.274000000
H     0.036000000    -4.213000000     2.159000000
O     0.875000000    -0.103000000    -3.015000000
H     0.598000000     0.016000000    -2.106000000
H     1.692000000     0.391000000    -3.082000000
O    -3.709000000    -2.813000000    -4.534000000
H    -3.568000000    -1.966000000    -4.955000000
H    -4.391000000    -3.232000000    -5.059000000
O     1.199000000     8.155000000    -0.211000000
H     1.918000000     8.553000000    -0.701000000
H     1.379000000     7.215000000    -0.243000000
O    -2.959000000    -1.137000000     5.151000000
H    -2.695000000    -0.269000000     5.457000000
H    -3.456000000    -0.969000000     4.351000000
O    -2.269000000    -3.073000000    -2.350000000
H    -2.846000000    -2.841000000    -3.078000000
H    -2.465000000    -2.426000000    -1.673000000
O     3.712000000     6.785000000     1.301000000
H     3.930000000     6.002000000     1.807000000
H     3.593000000     6.466000000     0.406000000
O     5.995000000     0.461000000     0.170000000
H     6.143000000     0.102000000     1.045000000
H     5.148000000     0.903000000     0.233000000
O     3.607000000     3.785000000    -1.539000000
H     2.848000000     3.734000000    -2.119000000
H     3.322000000     3.353000000    -0.733000000
O    -2.900000000    -6.092000000    -2.999000000
H    -2.666000000    -5.294000000    -2.525000000
H    -3.565000000    -6.509000000    -2.451000000
O    -6.490000000    -1.583000000     1.641000000
H    -7.052000000    -1.336000000     0.907000000
H    -6.820000000    -2.439000000     1.917000000
O    -2.283000000    -6.084000000     1.285000000
H    -2.500000000    -6.813000000     1.867000000
H    -3.130000000    -5.775000000     0.963000000
O     5.920000000    -2.896000000    -0.576000000
H     6.135000000    -2.507000000    -1.424000000
H     5.708000000    -3.807000000    -0.777000000
O    -1.006000000     2.699000000    -2.680000000
H    -1.402000000     2.326000000    -1.892000000
H    -1.300000000     2.128000000    -3.390000000
O     3.605000000     6.623000000    -1.383000000
H     3.580000000     5.688000000    -1.584000000
H     4.417000000     6.932000000    -1.783000000
O     4.140000000     0.886000000     3.263000000
H     3.385000000     1.369000000     3.597000000
H     3.968000000     0.790000000     2.327000000
O    -4.575000000     1.599000000    -2.551000000
H    -3.917000000     1.818000000    -3.211000000
H    -5.160000000     0.983000000    -2.992000000
O     4.154000000    -0.339000000    -3.143000000
H     4.648000000    -1.145000000    -2.993000000
H     4.121000000     0.084000000    -2.285000000
O    -3.418000000    -2.879000000     1.294000000
H    -4.106000000    -2.216000000     1.231000000
H    -3.367000000    -3.083000000     2.228000000
O     1.298000000     3.957000000    -3.114000000
H     0.473000000     3.557000000    -2.839000000
H     1.681000000     3.324000000    -3.720000000
