158
-3040.60821
C     1.346000000     0.208000000    -0.600000000
H     2.357000000     0.287000000    -0.992000000
C     0.482000000    -0.821000000    -0.996000000
H     0.747000000    -1.470000000    -1.827000000
C    -0.743000000    -0.896000000    -0.360000000
H    -1.360000000    -1.765000000    -0.535000000
C    -1.124000000     0.046000000     0.565000000
H    -2.137000000     0.060000000     0.960000000
C    -0.244000000     1.041000000     0.952000000
H    -0.552000000     1.710000000     1.751000000
C     0.996000000     1.092000000     0.419000000
C     1.918000000     2.216000000     0.928000000
O     3.076000000     2.298000000     0.620000000
O     1.505000000     3.121000000     1.590000000
O     3.922000000    -3.328000000    -0.746000000
H     4.843000000    -3.303000000    -1.008000000
H     3.803000000    -4.201000000    -0.372000000
O    -0.621000000    -2.374000000    -4.480000000
H    -0.689000000    -2.979000000    -3.742000000
H    -0.516000000    -2.940000000    -5.245000000
O    -2.303000000     1.334000000     6.208000000
H    -2.266000000     0.709000000     5.484000000
H    -2.417000000     2.185000000     5.783000000
O    -0.590000000    -5.013000000    -0.422000000
H     0.223000000    -4.777000000     0.026000000
H    -0.431000000    -4.790000000    -1.339000000
O    -1.954000000    -7.372000000     0.390000000
H    -1.512000000    -7.887000000     1.065000000
H    -1.391000000    -6.608000000     0.264000000
O    -0.335000000     3.521000000     3.594000000
H     0.358000000     3.521000000     2.934000000
H     0.120000000     3.686000000     4.420000000
O    -2.987000000     4.030000000     2.476000000
H    -2.785000000     4.961000000     2.384000000
H    -2.136000000     3.612000000     2.610000000
O     3.162000000     4.519000000     3.503000000
H     2.562000000     4.388000000     4.238000000
H     2.860000000     3.904000000     2.835000000
O     1.167000000     4.433000000    -2.824000000
H     1.039000000     5.327000000    -3.141000000
H     1.092000000     4.504000000    -1.872000000
O    -2.079000000     5.912000000    -0.323000000
H    -1.196000000     5.576000000    -0.171000000
H    -2.529000000     5.204000000    -0.783000000
O     0.588000000    -4.711000000     2.909000000
H     0.826000000    -4.326000000     2.065000000
H     1.294000000    -4.448000000     3.499000000
O     0.698000000     5.115000000    -0.222000000
H     0.831000000     4.358000000     0.349000000
H     1.431000000     5.697000000    -0.024000000
O    -4.693000000     2.282000000     1.147000000
H    -4.475000000     1.366000000     1.321000000
H    -4.116000000     2.780000000     1.725000000
O     0.515000000    -4.547000000    -2.613000000
H     1.351000000    -4.365000000    -3.043000000
H    -0.092000000    -4.720000000    -3.332000000
O     0.224000000     1.685000000    -3.084000000
H     0.412000000     2.580000000    -3.364000000
H     0.069000000     1.755000000    -2.142000000
O    -0.705000000     0.455000000    -5.493000000
H    -0.712000000    -0.423000000    -5.111000000
H    -0.418000000     1.024000000    -4.778000000
O     2.444000000     0.135000000    -4.682000000
H     1.871000000     0.606000000    -4.077000000
H     2.692000000    -0.658000000    -4.207000000
O     1.479000000     3.729000000     5.510000000
H     1.073000000     4.180000000     6.251000000
H     1.908000000     2.967000000     5.900000000
O    -2.019000000     0.340000000     3.851000000
H    -1.305000000    -0.238000000     3.582000000
H    -2.533000000     0.472000000     3.054000000
O     4.226000000     7.758000000     0.772000000
H     4.943000000     7.960000000     0.172000000
H     4.174000000     6.802000000     0.771000000
O     6.938000000     1.968000000    -3.221000000
H     7.498000000     2.736000000    -3.115000000
H     6.495000000     1.876000000    -2.377000000
O    -4.543000000    -1.140000000    -1.215000000
H    -5.435000000    -1.449000000    -1.373000000
H    -4.088000000    -1.288000000    -2.043000000
O     3.853000000     5.113000000    -0.031000000
H     4.262000000     4.861000000    -0.859000000
H     3.520000000     4.291000000     0.331000000
O    -1.542000000     6.363000000     3.114000000
H    -1.077000000     7.138000000     3.431000000
H    -1.055000000     5.625000000     3.480000000
O    -4.367000000    -0.494000000     2.131000000
H    -4.589000000    -1.230000000     1.560000000
H    -4.073000000    -0.903000000     2.945000000
O     2.251000000    -4.405000000    -4.902000000
H     2.574000000    -3.644000000    -4.419000000
H     1.948000000    -4.048000000    -5.736000000
O     3.314000000    -2.261000000    -3.385000000
H     4.089000000    -1.712000000    -3.505000000
H     3.325000000    -2.491000000    -2.456000000
O     1.208000000    -3.170000000     0.751000000
H     2.106000000    -2.842000000     0.805000000
H     0.710000000    -2.445000000     0.373000000
O     5.243000000    -0.321000000    -3.117000000
H     5.448000000     0.490000000    -3.582000000
H     5.093000000    -0.046000000    -2.213000000
O     7.103000000     4.042000000     1.086000000
H     8.047000000     3.989000000     1.238000000
H     7.022000000     4.449000000     0.224000000
O     7.639000000     0.036000000     2.563000000
H     8.308000000     0.155000000     1.889000000
H     7.003000000     0.731000000     2.395000000
O     3.437000000    -1.730000000     2.341000000
H     3.971000000    -1.954000000     3.104000000
H     3.198000000    -0.813000000     2.477000000
O    -3.502000000     1.133000000    -1.975000000
H    -2.905000000     0.520000000    -2.404000000
H    -4.104000000     0.576000000    -1.481000000
O    -1.033000000    -5.360000000    -4.592000000
H    -0.625000000    -4.940000000    -5.349000000
H    -1.901000000    -5.619000000    -4.901000000
O    -3.491000000     2.662000000    -4.409000000
H    -3.141000000     3.446000000    -3.987000000
H    -3.506000000     2.003000000    -3.715000000
O    -3.191000000    -5.618000000     3.400000000
H    -3.012000000    -4.833000000     2.881000000
H    -2.684000000    -5.495000000     4.202000000
O    -5.001000000    -3.507000000     1.336000000
H    -4.078000000    -3.574000000     1.091000000
H    -5.006000000    -3.630000000     2.286000000
O     5.876000000     4.909000000     3.609000000
H     4.967000000     4.613000000     3.561000000
H     6.238000000     4.710000000     2.745000000
O     5.040000000     1.410000000    -0.944000000
H     5.376000000     0.699000000    -0.399000000
H     4.162000000     1.579000000    -0.601000000
O     4.331000000     0.717000000     4.190000000
H     4.689000000     1.158000000     3.419000000
H     5.101000000     0.459000000     4.697000000
O     6.242000000    -1.007000000    -0.055000000
H     6.152000000    -1.899000000    -0.390000000
H     6.465000000    -1.119000000     0.869000000
O    -3.372000000    -6.545000000    -1.789000000
H    -2.785000000    -6.768000000    -1.066000000
H    -2.846000000    -6.688000000    -2.576000000
O    -2.972000000    -1.081000000    -3.569000000
H    -2.204000000    -1.373000000    -4.060000000
H    -3.661000000    -0.997000000    -4.228000000
O    -2.366000000    -3.839000000     1.224000000
H    -1.854000000    -3.046000000     1.384000000
H    -1.883000000    -4.302000000     0.540000000
O     1.812000000     6.763000000     2.154000000
H     2.014000000     6.065000000     2.777000000
H     2.650000000     6.961000000     1.736000000
O     5.510000000     2.124000000     2.168000000
H     6.160000000     2.673000000     1.729000000
H     4.710000000     2.245000000     1.656000000
O    -3.141000000     3.524000000    -0.880000000
H    -3.299000000     2.648000000    -1.232000000
H    -3.415000000     3.467000000     0.035000000
O    -0.275000000    -1.965000000     3.661000000
H     0.153000000    -2.741000000     3.299000000
H    -0.980000000    -2.313000000     4.207000000
