158
-3024.35862
C     0.646000000     0.136000000     1.264000000
H     1.247000000     0.106000000     2.170000000
C     0.642000000    -1.065000000     0.517000000
H     1.252000000    -1.916000000     0.808000000
C    -0.171000000    -1.042000000    -0.621000000
H    -0.120000000    -2.010000000    -1.130000000
C    -0.885000000     0.064000000    -1.022000000
H    -1.374000000     0.121000000    -1.991000000
C    -0.781000000     1.270000000    -0.311000000
H    -1.461000000     2.075000000    -0.578000000
C     0.026000000     1.313000000     0.891000000
C     0.297000000     2.592000000     1.655000000
O     0.861000000     2.540000000     2.756000000
O    -0.281000000     3.557000000     1.271000000
O     3.456000000    -0.508000000    -1.452000000
H     2.767000000     0.148000000    -1.348000000
H     3.945000000    -0.474000000    -0.630000000
O    -0.216000000    -1.536000000     4.912000000
H     0.251000000    -1.887000000     5.670000000
H     0.126000000    -0.648000000     4.810000000
O    -3.374000000    -3.293000000    -0.827000000
H    -2.827000000    -3.720000000    -0.168000000
H    -4.265000000    -3.575000000    -0.618000000
O    -3.749000000    -3.124000000    -6.344000000
H    -3.535000000    -3.090000000    -5.411000000
H    -3.740000000    -4.057000000    -6.557000000
O    -0.678000000     4.993000000     4.096000000
H    -0.844000000     5.590000000     3.366000000
H    -0.280000000     4.223000000     3.690000000
O    -1.852000000     0.948000000     6.304000000
H    -1.075000000     1.160000000     5.787000000
H    -1.506000000     0.563000000     7.109000000
O    -3.410000000     6.207000000     1.407000000
H    -3.067000000     7.099000000     1.356000000
H    -4.360000000     6.313000000     1.358000000
O     2.639000000    -4.440000000     2.496000000
H     2.318000000    -5.097000000     1.878000000
H     1.861000000    -4.169000000     2.983000000
O    -5.698000000     3.839000000     0.208000000
H    -5.157000000     3.589000000     0.956000000
H    -6.589000000     3.601000000     0.466000000
O     0.293000000     6.936000000     2.589000000
H     0.774000000     6.564000000     3.328000000
H     0.211000000     7.866000000     2.800000000
O    -2.875000000     3.356000000     1.283000000
H    -3.043000000     4.277000000     1.484000000
H    -1.921000000     3.286000000     1.263000000
O     2.399000000     4.879000000     1.065000000
H     2.321000000     5.829000000     0.985000000
H     1.536000000     4.592000000     1.363000000
O     1.398000000     7.368000000    -0.314000000
H     2.298000000     7.467000000    -0.005000000
H     0.889000000     7.964000000     0.236000000
O     0.713000000     1.203000000     5.090000000
H     1.350000000     1.579000000     5.698000000
H     0.636000000     1.853000000     4.392000000
O     0.931000000    -4.310000000    -2.714000000
H     1.600000000    -3.807000000    -2.250000000
H     0.965000000    -3.982000000    -3.612000000
O    -1.862000000    -3.521000000     1.785000000
H    -1.259000000    -3.854000000     1.121000000
H    -1.485000000    -3.807000000     2.617000000
O     2.197000000    -6.742000000    -0.107000000
H     2.655000000    -6.532000000    -0.921000000
H     2.479000000    -7.632000000     0.104000000
O    -1.362000000     1.905000000    -6.023000000
H    -1.329000000     2.588000000    -5.353000000
H    -0.445000000     1.688000000    -6.189000000
O     3.246000000     3.796000000    -1.144000000
H     2.862000000     2.920000000    -1.188000000
H     3.085000000     4.084000000    -0.245000000
O     3.037000000    -3.197000000    -1.268000000
H     3.281000000    -2.281000000    -1.403000000
H     3.344000000    -3.399000000    -0.384000000
O    -0.444000000    -4.216000000    -5.236000000
H    -0.206000000    -5.081000000    -5.572000000
H    -0.528000000    -3.670000000    -6.017000000
O    -4.763000000    -0.853000000    -1.662000000
H    -4.047000000    -1.481000000    -1.572000000
H    -4.746000000    -0.352000000    -0.846000000
O     0.062000000     4.545000000    -1.137000000
H     0.062000000     4.107000000    -0.286000000
H     0.795000000     5.159000000    -1.091000000
O    -3.782000000    -0.519000000    -6.225000000
H    -3.237000000    -0.489000000    -5.439000000
H    -3.940000000    -1.452000000    -6.372000000
O     4.367000000    -0.213000000     0.944000000
H     4.438000000    -0.825000000     1.677000000
H     4.239000000     0.641000000     1.357000000
O    -4.253000000    -6.407000000    -2.795000000
H    -3.700000000    -6.579000000    -2.033000000
H    -3.743000000    -6.727000000    -3.539000000
O    -0.051000000    -4.272000000     3.826000000
H     0.418000000    -4.567000000     4.606000000
H    -0.188000000    -3.336000000     3.969000000
O    -2.399000000    -0.811000000     1.811000000
H    -2.310000000    -1.728000000     2.071000000
H    -1.639000000    -0.646000000     1.253000000
O    -2.204000000     3.719000000    -4.106000000
H    -2.883000000     3.428000000    -4.715000000
H    -2.684000000     3.986000000    -3.322000000
O     4.087000000    -5.534000000    -2.553000000
H     5.019000000    -5.610000000    -2.350000000
H     3.858000000    -4.641000000    -2.297000000
O     4.463000000    -2.332000000     2.654000000
H     3.778000000    -2.987000000     2.524000000
H     4.662000000    -2.376000000     3.589000000
O    -4.049000000     0.948000000     0.386000000
H    -4.086000000     1.893000000     0.533000000
H    -3.161000000     0.700000000     0.642000000
O     6.215000000    -3.518000000     0.607000000
H     6.825000000    -3.064000000     1.189000000
H     5.391000000    -3.541000000     1.095000000
O     2.858000000     6.735000000     4.308000000
H     3.258000000     6.961000000     3.469000000
H     2.869000000     5.778000000     4.329000000
O     3.522000000     3.956000000     3.415000000
H     3.724000000     3.202000000     3.968000000
H     2.724000000     3.704000000     2.949000000
O    -0.179000000    -6.605000000     2.357000000
H    -0.010000000    -5.878000000     2.956000000
H    -1.128000000    -6.724000000     2.387000000
O    -2.797000000    -3.443000000    -3.891000000
H    -1.906000000    -3.719000000    -4.109000000
H    -2.873000000    -3.602000000    -2.950000000
O     1.599000000     1.677000000    -5.654000000
H     1.294000000     2.243000000    -4.944000000
H     2.400000000     2.097000000    -5.968000000
O     4.176000000     2.337000000     5.455000000
H     4.524000000     1.445000000     5.459000000
H     3.615000000     2.378000000     6.230000000
O    -3.660000000     4.706000000     3.889000000
H    -2.854000000     4.295000000     3.577000000
H    -3.877000000     5.349000000     3.214000000
O    -0.056000000     5.548000000     6.845000000
H    -0.390000000     5.350000000     5.970000000
H    -0.085000000     4.711000000     7.307000000
O    -0.459000000    -5.036000000     0.047000000
H    -0.093000000    -4.963000000    -0.835000000
H     0.009000000    -5.773000000     0.440000000
O     0.784000000     3.644000000    -3.777000000
H     0.240000000     3.888000000    -3.028000000
H     0.611000000     4.323000000    -4.430000000
O     4.947000000     2.523000000     1.140000000
H     5.371000000     2.718000000     0.304000000
H     4.474000000     3.325000000     1.361000000
O     3.210000000    -0.922000000    -4.086000000
H     2.742000000    -0.087000000    -4.074000000
H     3.547000000    -1.020000000    -3.195000000
O    -2.423000000     5.953000000    -1.208000000
H    -2.702000000     5.915000000    -0.293000000
H    -1.590000000     5.481000000    -1.225000000
O     1.846000000     1.671000000    -2.175000000
H     1.044000000     1.156000000    -2.085000000
H     1.631000000     2.335000000    -2.831000000
O    -3.550000000    -0.658000000     4.187000000
H    -3.398000000    -0.576000000     3.246000000
H    -2.675000000    -0.762000000     4.563000000
