158
-3027.77454
C     0.956000000    -0.670000000     0.869000000
H     1.709000000    -1.283000000     1.359000000
C     0.250000000    -1.256000000    -0.152000000
H     0.243000000    -2.298000000    -0.461000000
C    -0.628000000    -0.466000000    -0.878000000
H    -1.216000000    -0.868000000    -1.748000000
C    -0.820000000     0.916000000    -0.635000000
H    -1.574000000     1.479000000    -1.180000000
C    -0.177000000     1.508000000     0.440000000
H    -0.443000000     2.489000000     0.826000000
C     0.781000000     0.705000000     1.135000000
C     1.817000000     1.326000000     2.055000000
O     2.805000000     0.776000000     2.426000000
O     1.561000000     2.475000000     2.407000000
O     3.288000000    -1.997000000    -1.376000000
H     2.878000000    -2.285000000    -0.560000000
H     3.536000000    -1.088000000    -1.212000000
O     2.229000000    -1.272000000     4.221000000
H     2.423000000    -0.625000000     3.543000000
H     2.807000000    -1.039000000     4.947000000
O    -3.074000000    -4.339000000     0.323000000
H    -2.419000000    -4.102000000     0.981000000
H    -3.732000000    -4.835000000     0.809000000
O    -2.810000000     5.987000000     0.518000000
H    -2.265000000     6.738000000     0.286000000
H    -3.425000000     6.328000000     1.167000000
O    -2.427000000    -5.018000000    -5.048000000
H    -1.590000000    -5.455000000    -4.888000000
H    -3.032000000    -5.729000000    -5.259000000
O    -0.203000000     3.666000000     3.656000000
H    -0.914000000     3.028000000     3.716000000
H     0.552000000     3.157000000     3.364000000
O    -7.118000000    -0.592000000    -0.195000000
H    -6.217000000    -0.554000000     0.124000000
H    -7.395000000    -1.493000000    -0.025000000
O    -3.510000000     3.396000000     1.463000000
H    -3.049000000     4.131000000     1.057000000
H    -4.277000000     3.794000000     1.876000000
O    -0.423000000     5.056000000    -3.260000000
H    -1.149000000     5.204000000    -2.653000000
H     0.338000000     4.924000000    -2.695000000
O    -4.551000000     1.339000000    -0.239000000
H    -5.030000000     1.027000000     0.529000000
H    -3.844000000     1.875000000     0.121000000
O     0.508000000     6.281000000     3.039000000
H     0.107000000     5.416000000     3.125000000
H     1.086000000     6.353000000     3.799000000
O    -2.221000000     1.807000000     3.373000000
H    -2.725000000     2.039000000     2.593000000
H    -1.985000000     0.889000000     3.242000000
O     3.515000000     3.925000000     1.623000000
H     3.289000000     4.835000000     1.816000000
H     2.826000000     3.412000000     2.046000000
O    -6.242000000     2.788000000    -1.910000000
H    -6.976000000     2.543000000    -1.348000000
H    -5.477000000     2.394000000    -1.491000000
O     1.307000000     2.558000000     6.606000000
H     1.758000000     2.095000000     7.312000000
H     1.907000000     2.501000000     5.862000000
O     0.951000000    -2.866000000    -5.462000000
H     0.386000000    -2.228000000    -5.898000000
H     1.569000000    -2.335000000    -4.959000000
O    -0.427000000     3.478000000    -5.523000000
H    -0.614000000     4.096000000    -6.230000000
H    -0.473000000     4.006000000    -4.725000000
O    -1.171000000    -4.064000000     2.043000000
H    -0.715000000    -4.755000000     1.562000000
H    -0.683000000    -3.982000000     2.862000000
O    -2.430000000     1.661000000    -5.705000000
H    -3.077000000     1.536000000    -5.011000000
H    -1.719000000     2.146000000    -5.285000000
O     4.748000000     2.608000000    -0.841000000
H     3.937000000     2.100000000    -0.853000000
H     4.507000000     3.435000000    -0.426000000
O     4.770000000    -2.481000000     5.148000000
H     5.181000000    -1.621000000     5.062000000
H     5.486000000    -3.103000000     5.020000000
O     6.403000000    -2.828000000     2.488000000
H     7.320000000    -2.907000000     2.228000000
H     6.193000000    -1.905000000     2.348000000
O    -3.807000000    -2.213000000    -1.462000000
H    -3.633000000    -2.929000000    -0.851000000
H    -3.565000000    -1.423000000    -0.980000000
O     1.787000000     4.487000000    -1.649000000
H     1.630000000     4.191000000    -0.752000000
H     2.386000000     5.227000000    -1.556000000
O    -2.567000000    -2.490000000    -3.956000000
H    -3.079000000    -2.557000000    -3.150000000
H    -2.559000000    -3.379000000    -4.310000000
O     5.421000000     0.091000000     2.702000000
H     5.516000000    -0.153000000     3.623000000
H     4.482000000     0.237000000     2.589000000
O    -0.204000000    -2.607000000     4.602000000
H    -0.251000000    -2.079000000     5.399000000
H     0.693000000    -2.491000000     4.291000000
O    -1.352000000    -0.785000000     2.741000000
H    -1.044000000    -0.881000000     1.840000000
H    -1.016000000    -1.559000000     3.193000000
O    -2.985000000     3.050000000    -3.193000000
H    -3.528000000     2.373000000    -2.788000000
H    -3.210000000     3.852000000    -2.722000000
O     6.428000000     0.780000000    -0.086000000
H     6.481000000     1.233000000     0.755000000
H     5.719000000     1.223000000    -0.553000000
O     3.247000000     5.503000000     4.276000000
H     3.439000000     5.635000000     5.204000000
H     3.440000000     4.578000000     4.120000000
O     3.322000000     2.653000000     4.612000000
H     3.814000000     1.980000000     5.082000000
H     3.156000000     2.271000000     3.750000000
O     1.222000000     7.136000000     0.681000000
H     0.383000000     7.510000000     0.414000000
H     1.028000000     6.663000000     1.490000000
O    -4.210000000    -6.589000000    -1.640000000
H    -3.621000000    -7.212000000    -1.215000000
H    -3.843000000    -5.730000000    -1.431000000
O     2.363000000     0.004000000    -5.744000000
H     2.263000000     0.932000000    -5.530000000
H     2.932000000    -0.005000000    -6.514000000
O     4.085000000     0.548000000     6.096000000
H     4.706000000    -0.048000000     6.515000000
H     3.515000000     0.839000000     6.807000000
O     0.391000000     5.341000000     5.738000000
H     0.069000000     4.917000000     4.943000000
H     1.129000000     4.799000000     6.016000000
O    -6.045000000    -1.936000000    -3.668000000
H    -5.553000000    -2.297000000    -2.931000000
H    -6.893000000    -1.695000000    -3.295000000
O    -0.317000000    -6.423000000     0.838000000
H    -0.231000000    -6.335000000    -0.111000000
H     0.577000000    -6.564000000     1.148000000
O     2.113000000     2.587000000    -4.745000000
H     2.039000000     2.808000000    -3.817000000
H     1.256000000     2.804000000    -5.112000000
O     6.014000000     2.676000000     2.429000000
H     5.766000000     1.776000000     2.639000000
H     5.224000000     3.060000000     2.049000000
O     3.741000000    -1.884000000    -4.336000000
H     3.235000000    -1.187000000    -4.755000000
H     3.526000000    -1.809000000    -3.406000000
O    -4.192000000    -2.318000000    -6.455000000
H    -4.321000000    -2.292000000    -5.507000000
H    -3.253000000    -2.466000000    -6.566000000
O    -4.747000000     0.575000000    -3.617000000
H    -4.590000000    -0.301000000    -3.265000000
H    -5.698000000     0.682000000    -3.577000000
O    -3.291000000     5.564000000    -2.266000000
H    -4.244000000     5.569000000    -2.352000000
H    -3.124000000     5.981000000    -1.421000000
O     2.450000000     1.231000000    -1.574000000
H     1.668000000     0.875000000    -1.151000000
H     2.209000000     1.305000000    -2.497000000
O    -3.685000000    -1.949000000     2.822000000
H    -2.848000000    -1.485000000     2.826000000
H    -3.516000000    -2.743000000     2.315000000
O    -1.505000000    -1.002000000    -6.215000000
H    -2.178000000    -0.323000000    -6.263000000
H    -1.660000000    -1.434000000    -5.375000000
