158
-3047.31307
C     0.572000000    -0.012000000     1.325000000
H     0.941000000    -0.196000000     2.330000000
C     0.735000000    -1.054000000     0.427000000
H     1.352000000    -1.915000000     0.668000000
C     0.029000000    -0.974000000    -0.821000000
H     0.084000000    -1.707000000    -1.539000000
C    -0.765000000     0.139000000    -1.098000000
H    -1.285000000     0.288000000    -2.041000000
C    -0.896000000     1.172000000    -0.089000000
H    -1.468000000     2.054000000    -0.367000000
C    -0.149000000     1.144000000     1.087000000
C    -0.178000000     2.326000000     2.091000000
O     0.423000000     2.195000000     3.133000000
O    -0.844000000     3.319000000     1.886000000
O     3.965000000    -0.168000000    -1.195000000
H     3.878000000     0.729000000    -0.873000000
H     4.839000000    -0.440000000    -0.913000000
O     0.332000000    -2.092000000     5.649000000
H     1.260000000    -2.317000000     5.575000000
H     0.329000000    -1.198000000     5.991000000
O    -4.034000000    -4.113000000    -0.696000000
H    -3.635000000    -4.921000000    -0.374000000
H    -3.318000000    -3.478000000    -0.702000000
O    -1.254000000     4.729000000     4.140000000
H    -1.040000000     5.564000000     3.724000000
H    -0.957000000     4.068000000     3.515000000
O    -4.153000000     5.220000000     2.691000000
H    -3.749000000     5.938000000     3.178000000
H    -5.087000000     5.426000000     2.691000000
O     2.049000000    -5.876000000     0.890000000
H     2.571000000    -6.428000000     0.308000000
H     1.290000000    -6.414000000     1.115000000
O     2.984000000    -2.340000000     5.279000000
H     2.863000000    -2.137000000     4.351000000
H     3.799000000    -2.839000000     5.311000000
O    -3.233000000     2.791000000     2.665000000
H    -3.547000000     3.680000000     2.829000000
H    -2.352000000     2.909000000     2.310000000
O     3.097000000     3.000000000     2.544000000
H     3.233000000     3.905000000     2.827000000
H     2.216000000     2.784000000     2.850000000
O     0.865000000     7.139000000     2.885000000
H     1.624000000     7.573000000     3.273000000
H     0.134000000     7.732000000     3.060000000
O     0.525000000     0.645000000     5.471000000
H     0.270000000     0.888000000     4.580000000
H     0.322000000     1.419000000     5.997000000
O    -0.671000000    -0.706000000    -4.984000000
H    -1.445000000    -0.816000000    -5.537000000
H    -0.827000000     0.113000000    -4.514000000
O     0.256000000    -4.996000000    -2.078000000
H     1.061000000    -4.761000000    -1.617000000
H     0.552000000    -5.299000000    -2.937000000
O    -1.870000000    -5.296000000     2.091000000
H    -1.054000000    -4.804000000     2.185000000
H    -1.911000000    -5.517000000     1.161000000
O     3.080000000    -4.375000000    -5.848000000
H     2.854000000    -3.447000000    -5.788000000
H     3.322000000    -4.621000000    -4.955000000
O    -1.987000000     1.534000000    -4.199000000
H    -2.815000000     1.664000000    -4.660000000
H    -1.679000000     2.420000000    -4.006000000
O     3.413000000     2.060000000     0.016000000
H     2.684000000     2.549000000    -0.365000000
H     3.428000000     2.330000000     0.935000000
O     2.887000000    -4.055000000    -1.269000000
H     2.851000000    -4.723000000    -0.585000000
H     3.220000000    -3.275000000    -0.825000000
O     1.734000000    -1.983000000    -5.042000000
H     0.996000000    -1.434000000    -4.779000000
H     2.507000000    -1.505000000    -4.741000000
O     5.523000000    -2.113000000    -5.404000000
H     4.961000000    -1.373000000    -5.176000000
H     5.084000000    -2.873000000    -5.023000000
O     0.460000000    -4.392000000    -4.805000000
H     0.902000000    -5.026000000    -5.369000000
H     1.013000000    -3.612000000    -4.843000000
O     0.572000000     5.474000000     0.729000000
H     0.181000000     4.917000000     1.402000000
H     0.706000000     6.317000000     1.164000000
O    -5.017000000    -1.784000000    -4.052000000
H    -4.154000000    -2.069000000    -3.752000000
H    -5.536000000    -1.708000000    -3.251000000
O     5.450000000    -2.903000000     0.836000000
H     5.257000000    -3.736000000     1.267000000
H     4.692000000    -2.352000000     1.030000000
O    -2.192000000    -5.492000000    -4.442000000
H    -2.214000000    -5.977000000    -5.267000000
H    -1.415000000    -4.938000000    -4.511000000
O    -0.558000000    -2.052000000    -7.775000000
H     0.065000000    -2.014000000    -7.048000000
H    -0.685000000    -2.988000000    -7.933000000
O    -0.211000000    -2.836000000     3.104000000
H     0.596000000    -3.335000000     2.975000000
H    -0.126000000    -2.464000000     3.981000000
O    -2.168000000    -1.610000000     1.369000000
H    -1.507000000    -1.054000000     0.957000000
H    -1.664000000    -2.264000000     1.853000000
O    -4.745000000     2.860000000    -1.654000000
H    -4.785000000     3.341000000    -0.827000000
H    -4.918000000     1.951000000    -1.410000000
O     2.350000000    -4.240000000     3.045000000
H     2.167000000    -4.542000000     2.155000000
H     3.003000000    -4.855000000     3.377000000
O    -4.837000000     0.543000000     1.604000000
H    -4.292000000     1.283000000     1.870000000
H    -4.261000000    -0.218000000     1.681000000
O     3.990000000     4.559000000     4.797000000
H     4.560000000     4.064000000     5.386000000
H     3.210000000     4.012000000     4.705000000
O     1.736000000     3.254000000     5.167000000
H     1.252000000     2.864000000     4.439000000
H     1.061000000     3.490000000     5.804000000
O     3.741000000    -0.639000000     1.860000000
H     4.357000000     0.060000000     2.079000000
H     3.098000000    -0.221000000     1.287000000
O    -2.641000000    -2.690000000    -3.140000000
H    -1.927000000    -2.074000000    -3.302000000
H    -2.231000000    -3.553000000    -3.196000000
O    -2.415000000     7.747000000    -1.084000000
H    -2.463000000     6.967000000    -0.531000000
H    -2.539000000     7.419000000    -1.974000000
O    -5.428000000     2.864000000     4.631000000
H    -5.050000000     3.126000000     3.792000000
H    -5.005000000     3.433000000     5.273000000
O    -0.928000000     3.072000000     6.435000000
H    -1.132000000     3.734000000     5.775000000
H    -1.777000000     2.838000000     6.810000000
O    -1.968000000    -5.876000000    -0.560000000
H    -1.165000000    -5.547000000    -0.966000000
H    -2.016000000    -6.792000000    -0.833000000
O    -3.420000000    -1.954000000     3.815000000
H    -3.195000000    -1.098000000     4.179000000
H    -3.175000000    -1.894000000     2.892000000
O     3.640000000    -0.297000000    -4.073000000
H     3.389000000     0.578000000    -4.368000000
H     3.448000000    -0.298000000    -3.135000000
O    -4.538000000     3.078000000    -4.425000000
H    -4.422000000     2.966000000    -3.482000000
H    -4.956000000     2.266000000    -4.713000000
O    -2.721000000     5.485000000     0.211000000
H    -3.026000000     5.655000000     1.103000000
H    -1.976000000     4.894000000     0.321000000
O     4.587000000    -4.074000000    -3.560000000
H     3.917000000    -4.084000000    -2.876000000
H     5.407000000    -4.236000000    -3.095000000
O     1.367000000     3.823000000    -1.349000000
H     0.493000000     3.454000000    -1.473000000
H     1.267000000     4.434000000    -0.619000000
O     2.840000000     0.078000000     6.994000000
H     3.280000000    -0.735000000     6.747000000
H     2.304000000     0.301000000     6.233000000
O    -2.735000000     0.585000000     4.633000000
H    -2.825000000     0.924000000     5.524000000
H    -3.003000000     1.312000000     4.072000000
O    -3.087000000    -1.292000000    -6.318000000
H    -3.874000000    -1.713000000    -5.971000000
H    -2.665000000    -1.972000000    -6.844000000
