158
-3044.73954
C     0.697000000    -0.856000000     0.988000000
H     1.211000000    -1.591000000     1.602000000
C     0.579000000    -1.095000000    -0.404000000
H     0.917000000    -2.033000000    -0.836000000
C    -0.122000000    -0.237000000    -1.219000000
H    -0.169000000    -0.505000000    -2.347000000
C    -0.662000000     0.885000000    -0.656000000
H    -1.023000000     1.659000000    -1.328000000
C    -0.606000000     1.138000000     0.699000000
H    -1.109000000     1.983000000     1.161000000
C     0.041000000     0.272000000     1.574000000
C     0.233000000     0.586000000     3.086000000
O     1.082000000     0.019000000     3.708000000
O    -0.359000000     1.498000000     3.645000000
O     3.743000000    -1.195000000     1.289000000
H     4.064000000    -0.299000000     1.188000000
H     4.328000000    -1.587000000     1.938000000
O     2.656000000    -1.925000000     4.501000000
H     2.118000000    -1.237000000     4.109000000
H     3.549000000    -1.716000000     4.228000000
O    -1.655000000     6.893000000     1.796000000
H    -1.240000000     7.162000000     0.976000000
H    -1.322000000     6.010000000     1.955000000
O    -1.465000000    -5.716000000    -1.019000000
H    -1.342000000    -5.937000000    -1.942000000
H    -2.012000000    -4.930000000    -1.032000000
O    -1.060000000     4.098000000     3.268000000
H    -2.004000000     4.243000000     3.341000000
H    -0.948000000     3.162000000     3.431000000
O    -3.069000000     1.396000000     4.459000000
H    -2.152000000     1.495000000     4.201000000
H    -3.054000000     0.731000000     5.146000000
O     0.145000000     4.024000000    -2.058000000
H    -0.512000000     4.460000000    -1.516000000
H     0.898000000     3.911000000    -1.479000000
O    -4.499000000     2.313000000    -0.357000000
H    -4.484000000     2.382000000     0.597000000
H    -4.087000000     1.469000000    -0.543000000
O     0.182000000    -2.533000000     7.627000000
H     0.276000000    -1.658000000     7.249000000
H     0.121000000    -2.382000000     8.570000000
O     0.322000000     6.510000000     4.068000000
H    -0.266000000     5.765000000     3.945000000
H     0.215000000     6.750000000     4.989000000
O     4.076000000    -4.125000000     5.736000000
H     3.606000000    -3.358000000     5.409000000
H     4.711000000    -3.770000000     6.357000000
O    -4.212000000     2.947000000     2.166000000
H    -4.061000000     3.776000000     2.622000000
H    -4.038000000     2.276000000     2.826000000
O     3.338000000     1.765000000     3.915000000
H     2.944000000     2.177000000     4.683000000
H     2.918000000     0.907000000     3.861000000
O    -5.505000000     2.713000000    -2.916000000
H    -6.402000000     2.381000000    -2.957000000
H    -5.273000000     2.664000000    -1.989000000
O    -1.853000000    -0.691000000     6.360000000
H    -1.752000000    -1.368000000     5.691000000
H    -0.988000000    -0.286000000     6.422000000
O     2.289000000    -4.050000000    -3.167000000
H     2.655000000    -3.548000000    -3.896000000
H     2.445000000    -3.503000000    -2.397000000
O     2.918000000     1.579000000    -7.131000000
H     2.794000000     1.427000000    -6.194000000
H     3.674000000     1.039000000    -7.362000000
O     1.280000000     3.299000000    -4.338000000
H     1.811000000     4.020000000    -4.676000000
H     0.999000000     3.593000000    -3.472000000
O    -1.574000000    -3.097000000     3.251000000
H    -1.407000000    -3.614000000     2.463000000
H    -0.739000000    -3.096000000     3.719000000
O    -2.450000000    -0.331000000    -3.199000000
H    -2.388000000     0.622000000    -3.261000000
H    -3.001000000    -0.486000000    -2.432000000
O     4.122000000     1.628000000     0.987000000
H     4.247000000     2.563000000     0.824000000
H     3.584000000     1.593000000     1.777000000
O     5.188000000    -1.961000000     3.327000000
H     5.445000000    -2.651000000     3.939000000
H     5.647000000    -1.181000000     3.637000000
O    -0.910000000     2.734000000    -5.797000000
H    -0.024000000     2.905000000    -5.477000000
H    -1.443000000     2.674000000    -5.004000000
O     0.195000000    -4.802000000    -4.570000000
H     0.698000000    -4.831000000    -5.384000000
H     0.847000000    -4.627000000    -3.891000000
O     5.375000000    -4.405000000    -1.076000000
H     4.740000000    -3.706000000    -1.236000000
H     4.923000000    -5.007000000    -0.485000000
O    -2.807000000    -3.348000000    -1.638000000
H    -2.757000000    -2.398000000    -1.529000000
H    -2.769000000    -3.483000000    -2.585000000
O     2.426000000     4.670000000    -0.876000000
H     3.274000000     4.317000000    -0.608000000
H     2.621000000     5.209000000    -1.642000000
O    -2.487000000    -4.041000000    -4.244000000
H    -2.831000000    -4.842000000    -4.638000000
H    -1.537000000    -4.115000000    -4.340000000
O     5.603000000     0.455000000     4.700000000
H     5.832000000     0.554000000     5.624000000
H     4.776000000     0.929000000     4.606000000
O    -1.244000000    -0.167000000    -7.774000000
H    -1.731000000    -0.813000000    -7.262000000
H    -1.883000000     0.173000000    -8.400000000
O     0.529000000    -3.464000000     5.142000000
H     0.478000000    -3.174000000     6.053000000
H     1.292000000    -3.007000000     4.788000000
O    -3.196000000    -0.559000000    -0.560000000
H    -2.288000000    -0.322000000    -0.373000000
H    -3.540000000    -0.870000000     0.277000000
O    -2.302000000     2.687000000    -3.428000000
H    -3.063000000     3.112000000    -3.030000000
H    -1.571000000     3.272000000    -3.229000000
O     3.496000000    -5.262000000     1.611000000
H     2.875000000    -5.453000000     2.314000000
H     4.340000000    -5.176000000     2.055000000
O     0.733000000    -0.114000000     6.241000000
H     1.621000000     0.134000000     6.496000000
H     0.759000000    -0.149000000     5.285000000
O     3.525000000    -1.981000000    -4.444000000
H     3.064000000    -1.146000000    -4.524000000
H     3.888000000    -2.138000000    -5.316000000
O     3.473000000    -0.136000000     6.851000000
H     4.397000000     0.112000000     6.888000000
H     3.484000000    -1.090000000     6.778000000
O    -0.310000000     2.967000000     6.066000000
H    -0.436000000     3.606000000     5.365000000
H    -0.046000000     2.165000000     5.614000000
O    -0.823000000    -5.240000000     1.531000000
H    -0.896000000    -5.261000000     0.577000000
H    -0.467000000    -6.098000000     1.763000000
O     2.753000000     1.035000000    -4.024000000
H     2.753000000     0.881000000    -3.080000000
H     2.165000000     1.780000000    -4.145000000
O     3.651000000    -2.436000000    -1.241000000
H     3.608000000    -1.632000000    -1.758000000
H     3.496000000    -2.151000000    -0.341000000
O    -4.592000000     1.605000000    -5.585000000
H    -5.255000000     0.934000000    -5.423000000
H    -4.260000000     1.829000000    -4.715000000
O    -2.154000000     4.419000000    -0.444000000
H    -2.849000000     5.076000000    -0.416000000
H    -2.408000000     3.772000000     0.214000000
O     2.947000000     0.397000000    -1.316000000
H     3.513000000     0.352000000    -0.545000000
H     2.060000000     0.303000000    -0.969000000
O    -3.657000000    -1.886000000     1.715000000
H    -2.771000000    -2.102000000     2.007000000
H    -4.174000000    -2.664000000     1.922000000
O    -0.052000000     1.513000000     8.799000000
H     0.696000000     1.089000000     8.379000000
H    -0.295000000     2.219000000     8.200000000
O    -2.282000000    -1.701000000    -5.600000000
H    -2.271000000    -1.020000000    -4.928000000
H    -2.398000000    -2.517000000    -5.112000000
O     5.366000000     2.033000000    -4.530000000
H     5.779000000     1.518000000    -5.223000000
H     4.437000000     1.807000000    -4.585000000
