158
-3011.44542
C    -0.758000000    -1.261000000     0.271000000
H    -1.422000000    -2.111000000     0.399000000
C    -1.253000000    -0.036000000    -0.228000000
H    -2.284000000     0.027000000    -0.565000000
C    -0.482000000     1.082000000    -0.398000000
H    -0.943000000     2.014000000    -0.773000000
C     0.864000000     0.948000000    -0.034000000
H     1.496000000     1.832000000    -0.046000000
C     1.343000000    -0.185000000     0.494000000
H     2.345000000    -0.152000000     0.915000000
C     0.590000000    -1.315000000     0.601000000
C     1.105000000    -2.610000000     1.056000000
O     2.203000000    -2.782000000     1.558000000
O     0.440000000    -3.638000000     0.905000000
O     4.451000000    -3.468000000    -0.239000000
H     5.148000000    -3.675000000     0.385000000
H     3.713000000    -3.200000000     0.308000000
O     1.226000000     1.610000000    -6.006000000
H     0.952000000     1.525000000    -6.919000000
H     1.510000000     0.731000000    -5.758000000
O    -5.560000000    -3.607000000     0.381000000
H    -6.288000000    -3.411000000     0.970000000
H    -5.176000000    -2.752000000     0.183000000
O     4.878000000    -4.462000000     2.711000000
H     4.058000000    -3.969000000     2.739000000
H     4.941000000    -4.871000000     3.574000000
O     0.481000000     5.989000000    -1.264000000
H     0.142000000     6.874000000    -1.130000000
H    -0.291000000     5.466000000    -1.479000000
O     1.852000000    -3.372000000     5.844000000
H     1.265000000    -3.944000000     5.350000000
H     2.279000000    -2.834000000     5.177000000
O    -4.141000000     2.199000000    -0.361000000
H    -3.317000000     1.727000000    -0.476000000
H    -4.450000000     2.363000000    -1.252000000
O     1.198000000     0.216000000     4.611000000
H     0.276000000     0.371000000     4.409000000
H     1.669000000     0.881000000     4.110000000
O    -0.608000000     4.850000000    -5.721000000
H    -1.150000000     4.102000000    -5.969000000
H     0.219000000     4.710000000    -6.182000000
O     5.991000000     1.134000000    -1.437000000
H     5.641000000     1.075000000    -0.548000000
H     5.593000000     1.926000000    -1.799000000
O     2.723000000    -1.839000000     3.988000000
H     1.963000000    -1.259000000     4.028000000
H     2.709000000    -2.192000000     3.098000000
O    -2.907000000    -2.265000000     5.133000000
H    -2.180000000    -2.494000000     4.553000000
H    -3.690000000    -2.539000000     4.656000000
O     1.844000000     3.089000000    -2.881000000
H     1.223000000     2.732000000    -2.246000000
H     1.621000000     2.654000000    -3.704000000
O     2.043000000    -5.717000000     0.033000000
H     1.422000000    -4.990000000     0.071000000
H     1.524000000    -6.460000000    -0.274000000
O    -1.271000000     3.335000000     3.225000000
H    -2.024000000     2.781000000     3.430000000
H    -1.069000000     3.780000000     4.048000000
O    -0.634000000    -6.761000000     1.600000000
H    -0.537000000    -6.069000000     0.945000000
H    -1.435000000    -6.532000000     2.072000000
O     5.006000000    -7.101000000     1.634000000
H     4.146000000    -7.408000000     1.919000000
H     5.016000000    -6.172000000     1.864000000
O    -1.040000000     1.921000000    -3.927000000
H    -0.831000000     2.049000000    -4.852000000
H    -1.028000000     2.803000000    -3.554000000
O    -3.697000000    -5.702000000     0.365000000
H    -3.019000000    -5.300000000    -0.178000000
H    -4.379000000    -5.033000000     0.431000000
O     4.163000000    -6.725000000    -1.248000000
H     3.572000000    -6.129000000    -0.788000000
H     4.764000000    -7.035000000    -0.571000000
O    -1.735000000     4.327000000    -1.588000000
H    -2.042000000     3.940000000    -0.768000000
H    -2.188000000     5.168000000    -1.640000000
O     0.620000000    -5.299000000    -2.995000000
H     1.068000000    -6.139000000    -2.893000000
H     0.047000000    -5.239000000    -2.231000000
O    -4.897000000    -0.287000000     0.292000000
H    -5.046000000     0.652000000     0.187000000
H    -5.544000000    -0.561000000     0.942000000
O    -4.881000000    -3.296000000    -3.491000000
H    -4.406000000    -4.116000000    -3.625000000
H    -4.512000000    -2.934000000    -2.686000000
O     1.745000000    -5.105000000     3.027000000
H     1.663000000    -4.273000000     2.561000000
H     1.824000000    -5.761000000     2.334000000
O    -4.900000000     4.390000000    -2.450000000
H    -4.233000000     3.758000000    -2.718000000
H    -4.491000000     4.882000000    -1.738000000
O     0.856000000     6.799000000     2.381000000
H     0.956000000     7.484000000     1.720000000
H     0.795000000     5.987000000     1.878000000
O    -3.561000000    -2.205000000    -1.577000000
H    -3.984000000    -1.452000000    -1.165000000
H    -2.879000000    -1.824000000    -2.131000000
O     0.707000000     4.488000000     1.229000000
H     0.492000000     4.813000000     0.354000000
H    -0.014000000     3.899000000     1.449000000
O    -1.508000000    -4.408000000    -0.841000000
H    -0.873000000    -4.237000000    -0.147000000
H    -2.087000000    -3.646000000    -0.829000000
O    -5.659000000     3.191000000     1.838000000
H    -6.361000000     2.540000000     1.818000000
H    -5.137000000     3.004000000     1.058000000
O     0.203000000    -0.356000000    -2.879000000
H     0.003000000     0.451000000    -3.353000000
H    -0.024000000    -0.162000000    -1.970000000
O     2.740000000    -3.151000000    -2.528000000
H     3.362000000    -3.433000000    -1.857000000
H     2.076000000    -3.840000000    -2.545000000
O    -2.388000000     4.659000000     1.272000000
H    -2.032000000     4.106000000     1.967000000
H    -2.482000000     5.521000000     1.677000000
O     3.043000000     5.106000000    -1.314000000
H     2.857000000     4.364000000    -1.889000000
H     2.192000000     5.522000000    -1.177000000
O     6.125000000    -1.747000000    -1.574000000
H     5.833000000    -0.891000000    -1.259000000
H     5.567000000    -2.375000000    -1.115000000
O    -3.775000000     6.255000000    -0.728000000
H    -4.491000000     6.801000000    -0.402000000
H    -2.989000000     6.784000000    -0.591000000
O    -1.669000000     0.214000000     4.554000000
H    -2.332000000     0.469000000     3.913000000
H    -1.928000000    -0.666000000     4.830000000
O     1.765000000    -7.995000000     2.317000000
H     1.011000000    -7.738000000     1.787000000
H     1.384000000    -8.407000000     3.092000000
O    -3.834000000     1.341000000    -2.913000000
H    -4.453000000     0.965000000    -3.539000000
H    -2.982000000     0.998000000    -3.184000000
O     5.264000000    -0.284000000     4.457000000
H     4.691000000    -0.934000000     4.049000000
H     5.174000000     0.493000000     3.906000000
O     4.794000000     2.206000000     3.726000000
H     4.504000000     2.876000000     4.346000000
H     4.384000000     2.454000000     2.897000000
O     6.980000000    -3.010000000     1.339000000
H     7.434000000    -2.234000000     1.669000000
H     6.534000000    -3.370000000     2.105000000
O    -2.053000000    -1.185000000    -3.934000000
H    -1.737000000    -1.876000000    -4.516000000
H    -1.261000000    -0.826000000    -3.535000000
O    -1.164000000    -3.603000000     3.383000000
H    -1.286000000    -4.544000000     3.505000000
H    -0.493000000    -3.534000000     2.703000000
O     1.863000000     2.914000000     3.516000000
H     1.023000000     3.367000000     3.585000000
H     2.255000000     3.257000000     2.712000000
O     3.808000000     3.614000000     1.494000000
H     3.275000000     4.319000000     1.125000000
H     4.707000000     3.850000000     1.268000000
O     0.514000000    -6.798000000     5.094000000
H     0.834000000    -6.316000000     4.332000000
H    -0.066000000    -6.182000000     5.542000000
