158
-3038.48040
C     1.246000000     0.623000000     0.484000000
H     2.214000000     0.928000000     0.874000000
C     1.137000000    -0.659000000     0.035000000
H     1.990000000    -1.319000000     0.168000000
C    -0.073000000    -1.098000000    -0.459000000
H    -0.123000000    -2.135000000    -0.723000000
C    -1.203000000    -0.312000000    -0.516000000
H    -2.172000000    -0.657000000    -0.868000000
C    -1.075000000     1.024000000    -0.114000000
H    -1.891000000     1.742000000    -0.114000000
C     0.134000000     1.478000000     0.462000000
C     0.223000000     2.863000000     1.025000000
O     1.335000000     3.261000000     1.360000000
O    -0.778000000     3.521000000     1.136000000
O     5.663000000    -2.230000000    -2.538000000
H     4.827000000    -1.766000000    -2.580000000
H     6.157000000    -1.773000000    -1.857000000
O    -3.275000000    -4.637000000    -0.490000000
H    -3.339000000    -4.026000000     0.244000000
H    -2.357000000    -4.908000000    -0.497000000
O    -2.662000000     7.767000000     1.266000000
H    -2.508000000     8.213000000     0.433000000
H    -3.423000000     7.210000000     1.102000000
O    -2.534000000    -1.292000000    -4.808000000
H    -3.349000000    -1.416000000    -5.295000000
H    -2.661000000    -1.787000000    -3.998000000
O     7.047000000    -0.963000000    -0.633000000
H     7.891000000    -1.397000000    -0.511000000
H     6.544000000    -1.192000000     0.149000000
O    -4.674000000     4.346000000     3.036000000
H    -4.851000000     5.174000000     2.589000000
H    -4.393000000     4.603000000     3.914000000
O     1.698000000    -7.839000000     0.382000000
H     1.173000000    -7.163000000     0.810000000
H     1.293000000    -8.663000000     0.652000000
O     0.662000000    -3.349000000     2.870000000
H     0.497000000    -2.406000000     2.886000000
H     0.538000000    -3.629000000     3.777000000
O    -2.385000000     2.633000000     3.062000000
H    -3.105000000     3.263000000     3.037000000
H    -1.736000000     2.985000000     2.452000000
O     2.702000000     5.550000000     0.674000000
H     2.299000000     4.681000000     0.690000000
H     1.989000000     6.148000000     0.899000000
O    -6.154000000     0.161000000    -0.097000000
H    -5.893000000     1.063000000     0.090000000
H    -5.524000000    -0.376000000     0.383000000
O     0.524000000     6.996000000     1.481000000
H     0.507000000     7.939000000     1.320000000
H    -0.346000000     6.693000000     1.220000000
O    -5.372000000     2.329000000     0.941000000
H    -5.015000000     2.713000000     1.741000000
H    -6.192000000     2.801000000     0.794000000
O    -0.253000000    -0.808000000     3.155000000
H    -0.496000000    -0.112000000     3.766000000
H    -0.026000000    -0.349000000     2.347000000
O    -0.185000000    -0.783000000    -6.364000000
H    -0.686000000    -1.142000000    -5.632000000
H    -0.806000000    -0.761000000    -7.092000000
O     0.402000000     1.278000000    -3.198000000
H    -0.346000000     1.667000000    -3.651000000
H     0.077000000     0.435000000    -2.880000000
O     3.980000000     4.552000000    -1.329000000
H     3.424000000     5.062000000    -0.739000000
H     3.440000000     3.802000000    -1.579000000
O     3.793000000    -3.531000000     2.710000000
H     3.965000000    -4.425000000     3.005000000
H     3.252000000    -3.637000000     1.927000000
O    -1.143000000     5.182000000     4.076000000
H    -1.507000000     6.048000000     3.889000000
H    -0.648000000     4.955000000     3.289000000
O    -4.706000000    -4.014000000    -3.577000000
H    -4.834000000    -4.577000000    -4.341000000
H    -3.760000000    -4.014000000    -3.435000000
O     3.116000000    -5.158000000     0.344000000
H     2.716000000    -4.680000000    -0.383000000
H     2.581000000    -5.946000000     0.436000000
O     5.220000000     5.344000000     2.818000000
H     4.645000000     6.101000000     2.935000000
H     4.641000000     4.651000000     2.500000000
O     4.298000000    -1.661000000     5.088000000
H     3.758000000    -1.715000000     4.299000000
H     3.737000000    -2.001000000     5.785000000
O     0.217000000    -5.939000000     1.484000000
H    -0.378000000    -6.527000000     1.949000000
H     0.330000000    -5.196000000     2.076000000
O    -2.129000000    -2.698000000     1.586000000
H    -1.581000000    -2.431000000     0.848000000
H    -1.723000000    -2.285000000     2.348000000
O    -5.770000000     0.061000000    -2.888000000
H    -5.574000000    -0.198000000    -1.988000000
H    -6.713000000     0.226000000    -2.890000000
O    -4.430000000    -1.202000000     1.677000000
H    -3.921000000    -2.008000000     1.757000000
H    -3.989000000    -0.581000000     2.257000000
O     1.800000000     4.946000000     3.299000000
H     1.870000000     5.635000000     2.638000000
H     1.658000000     4.145000000     2.795000000
O    -2.086000000     3.779000000    -2.340000000
H    -2.422000000     2.906000000    -2.543000000
H    -1.892000000     4.165000000    -3.195000000
O     1.347000000     5.230000000     6.318000000
H     0.941000000     6.079000000     6.493000000
H     1.200000000     5.083000000     5.383000000
O     5.879000000    -2.135000000     1.574000000
H     5.904000000    -1.244000000     1.924000000
H     5.129000000    -2.541000000     2.008000000
O    -2.021000000    -4.321000000    -3.526000000
H    -1.473000000    -4.660000000    -4.234000000
H    -1.563000000    -4.575000000    -2.726000000
O    -6.176000000    -4.220000000    -0.706000000
H    -6.118000000    -3.840000000    -1.583000000
H    -5.313000000    -4.606000000    -0.555000000
O    -1.673000000     5.489000000    -0.409000000
H    -1.372000000     4.957000000     0.328000000
H    -1.964000000     4.851000000    -1.061000000
O     0.720000000     6.087000000    -1.480000000
H     0.824000000     5.215000000    -1.862000000
H     0.040000000     5.977000000    -0.815000000
O    -4.045000000     0.516000000     3.804000000
H    -3.362000000     1.157000000     3.606000000
H    -4.565000000     0.925000000     4.495000000
O    -1.095000000     1.545000000     5.308000000
H    -1.481000000     1.777000000     4.463000000
H    -1.382000000     2.239000000     5.901000000
O    -0.447000000    -4.898000000    -1.140000000
H    -0.102000000    -5.516000000    -0.496000000
H     0.330000000    -4.487000000    -1.518000000
O     5.526000000     2.060000000     0.069000000
H     5.976000000     2.793000000    -0.352000000
H     5.607000000     1.339000000    -0.556000000
O     3.393000000     3.040000000     4.759000000
H     3.612000000     2.682000000     3.899000000
H     2.757000000     3.732000000     4.575000000
O     2.186000000    -4.250000000    -2.485000000
H     2.896000000    -4.840000000    -2.739000000
H     1.992000000    -3.753000000    -3.279000000
O    -2.236000000     1.548000000    -4.563000000
H    -2.112000000     0.635000000    -4.824000000
H    -3.179000000     1.693000000    -4.639000000
O    -5.569000000     2.938000000    -2.140000000
H    -6.476000000     2.731000000    -2.365000000
H    -5.213000000     2.116000000    -1.803000000
O     2.838000000    -0.532000000    -2.938000000
H     2.885000000     0.408000000    -3.111000000
H     2.165000000    -0.618000000    -2.263000000
O     1.382000000     3.728000000    -2.824000000
H     2.100000000     3.490000000    -3.410000000
H     0.942000000     2.899000000    -2.635000000
O     3.885000000     2.580000000     2.139000000
H     2.953000000     2.728000000     1.978000000
H     4.263000000     2.465000000     1.267000000
O     2.064000000    -2.248000000    -4.940000000
H     2.383000000    -1.972000000    -4.081000000
H     1.684000000    -1.456000000    -5.320000000
O     5.935000000     0.347000000     2.874000000
H     5.373000000     1.083000000     2.631000000
H     6.577000000     0.725000000     3.475000000
