158
-3023.31496
C     0.485000000    -0.728000000     1.215000000
H     0.856000000    -1.284000000     2.072000000
C     1.096000000    -0.760000000    -0.045000000
H     1.934000000    -1.426000000    -0.234000000
C     0.442000000    -0.095000000    -1.122000000
H     0.750000000    -0.229000000    -2.060000000
C    -0.632000000     0.691000000    -0.942000000
H    -0.959000000     1.376000000    -1.720000000
C    -1.107000000     0.836000000     0.314000000
H    -1.865000000     1.610000000     0.402000000
C    -0.614000000     0.094000000     1.454000000
C    -1.151000000     0.290000000     2.807000000
O    -1.082000000    -0.664000000     3.613000000
O    -1.911000000     1.226000000     3.018000000
O     4.403000000    -1.393000000     5.392000000
H     3.593000000    -1.023000000     5.043000000
H     4.757000000    -1.917000000     4.674000000
O     0.615000000    -2.562000000     4.746000000
H     1.001000000    -3.026000000     4.003000000
H     0.159000000    -1.818000000     4.353000000
O    -4.973000000    -0.336000000     5.439000000
H    -4.532000000    -0.999000000     4.909000000
H    -5.905000000    -0.473000000     5.268000000
O    -2.470000000     3.874000000     1.938000000
H    -3.427000000     3.849000000     1.950000000
H    -2.204000000     2.992000000     2.198000000
O    -4.732000000     0.943000000     2.503000000
H    -3.777000000     0.987000000     2.469000000
H    -4.918000000     0.104000000     2.926000000
O     5.518000000     0.353000000    -4.201000000
H     5.004000000     1.133000000    -4.407000000
H     5.424000000    -0.207000000    -4.971000000
O     0.422000000    -5.478000000     2.307000000
H     0.025000000    -5.503000000     3.178000000
H     1.063000000    -4.769000000     2.355000000
O    -6.141000000     3.684000000    -0.779000000
H    -5.592000000     4.113000000    -1.435000000
H    -5.607000000     3.681000000     0.015000000
O     0.428000000    -1.491000000     8.480000000
H    -0.180000000    -1.230000000     7.788000000
H     1.126000000    -0.838000000     8.443000000
O     4.626000000    -3.320000000    -2.085000000
H     4.161000000    -2.686000000    -2.630000000
H     5.552000000    -3.157000000    -2.265000000
O    -5.424000000     3.646000000     1.824000000
H    -5.977000000     4.282000000     2.279000000
H    -5.285000000     2.948000000     2.465000000
O     1.380000000     3.199000000     3.917000000
H     0.435000000     3.263000000     4.059000000
H     1.471000000     3.059000000     2.974000000
O    -4.987000000     1.052000000    -1.097000000
H    -5.265000000     0.290000000    -0.588000000
H    -5.447000000     1.789000000    -0.695000000
O    -3.368000000     1.640000000     5.557000000
H    -4.056000000     0.976000000     5.512000000
H    -2.762000000     1.405000000     4.855000000
O    -1.089000000    -5.029000000    -0.842000000
H    -1.222000000    -4.090000000    -0.709000000
H    -0.211000000    -5.197000000    -0.499000000
O     1.472000000    -4.804000000    -4.396000000
H     1.373000000    -4.705000000    -5.343000000
H     0.575000000    -4.829000000    -4.063000000
O     5.358000000     3.390000000    -3.044000000
H     4.683000000     2.774000000    -3.327000000
H     6.152000000     3.099000000    -3.492000000
O     3.112000000     2.553000000    -5.665000000
H     2.909000000     1.680000000    -5.330000000
H     2.673000000     3.150000000    -5.060000000
O     1.874000000    -5.877000000    -0.696000000
H     2.007000000    -6.327000000     0.138000000
H     2.631000000    -6.126000000    -1.226000000
O    -2.551000000    -2.493000000    -5.216000000
H    -1.720000000    -2.217000000    -5.601000000
H    -2.686000000    -3.381000000    -5.548000000
O     1.489000000     2.761000000     1.338000000
H     0.796000000     2.314000000     0.851000000
H     2.282000000     2.600000000     0.827000000
O     1.367000000     3.606000000    -3.352000000
H     0.577000000     3.943000000    -3.774000000
H     1.461000000     4.136000000    -2.561000000
O    -1.218000000    -4.759000000    -3.706000000
H    -1.204000000    -5.374000000    -2.972000000
H    -1.866000000    -4.101000000    -3.454000000
O     1.014000000     5.077000000    -0.751000000
H     0.549000000     5.335000000     0.045000000
H     1.794000000     4.620000000    -0.435000000
O    -1.525000000    -2.436000000    -0.396000000
H    -1.812000000    -1.853000000    -1.099000000
H    -0.761000000    -2.000000000    -0.018000000
O    -0.657000000     2.335000000    -7.343000000
H    -0.696000000     1.430000000    -7.652000000
H    -1.174000000     2.336000000    -6.537000000
O    -2.169000000     1.370000000    -4.966000000
H    -1.919000000     1.270000000    -4.048000000
H    -2.613000000     2.217000000    -5.003000000
O     2.117000000     0.084000000    -5.092000000
H     1.173000000    -0.075000000    -5.089000000
H     2.385000000    -0.083000000    -5.996000000
O     4.425000000    -3.637000000     0.731000000
H     3.782000000    -3.319000000     0.098000000
H     5.249000000    -3.664000000     0.244000000
O    -1.366000000    -3.527000000     6.617000000
H    -1.174000000    -3.141000000     7.472000000
H    -0.925000000    -2.952000000     5.991000000
O    -0.770000000    -0.349000000     6.211000000
H    -0.470000000     0.559000000     6.163000000
H    -0.944000000    -0.592000000     5.302000000
O    -2.925000000    -0.920000000     8.056000000
H    -2.888000000    -0.535000000     7.181000000
H    -3.774000000    -1.361000000     8.088000000
O    -3.495000000    -1.863000000     4.079000000
H    -3.554000000    -2.204000000     3.187000000
H    -2.605000000    -1.519000000     4.146000000
O    -1.918000000     5.612000000    -1.185000000
H    -1.609000000     5.428000000    -0.298000000
H    -1.120000000     5.784000000    -1.685000000
O     3.018000000    -2.031000000    -3.686000000
H     2.393000000    -2.752000000    -3.764000000
H     2.683000000    -1.359000000    -4.280000000
O     0.275000000    -2.648000000    -6.757000000
H     0.915000000    -3.048000000    -7.345000000
H     0.042000000    -1.823000000    -7.184000000
O    -4.526000000    -3.963000000     5.853000000
H    -3.695000000    -3.605000000     5.542000000
H    -4.696000000    -3.497000000     6.672000000
O    -1.294000000     3.791000000     4.641000000
H    -1.782000000     4.535000000     4.289000000
H    -1.906000000     3.057000000     4.594000000
O    -3.622000000    -2.975000000     1.455000000
H    -2.895000000    -2.756000000     0.872000000
H    -3.937000000    -3.821000000     1.138000000
O     3.318000000     1.518000000    -2.731000000
H     3.217000000     0.585000000    -2.919000000
H     2.537000000     1.924000000    -3.107000000
O     3.524000000    -5.561000000    -2.818000000
H     2.663000000    -5.407000000    -3.206000000
H     3.873000000    -4.685000000    -2.653000000
O     2.380000000    -3.614000000     2.631000000
H     2.924000000    -3.549000000     1.847000000
H     3.005000000    -3.721000000     3.348000000
O    -4.137000000     4.940000000    -2.436000000
H    -4.364000000     5.838000000    -2.681000000
H    -3.253000000     5.007000000    -2.076000000
O     5.251000000    -2.785000000     3.087000000
H     5.071000000    -2.933000000     2.158000000
H     6.188000000    -2.957000000     3.180000000
O    -0.541000000     5.724000000     1.466000000
H    -1.176000000     5.020000000     1.596000000
H    -0.834000000     6.422000000     2.052000000
O     3.679000000     2.780000000    -0.528000000
H     4.029000000     3.645000000    -0.744000000
H     3.657000000     2.315000000    -1.365000000
O    -0.346000000     2.610000000     7.219000000
H     0.440000000     3.078000000     7.501000000
H    -0.607000000     3.047000000     6.408000000
O     6.321000000     0.449000000    -1.673000000
H     5.380000000     0.381000000    -1.512000000
H     6.405000000     0.394000000    -2.625000000
