158
-3038.95028
C    -0.983000000    -1.078000000     0.203000000
H    -1.624000000    -1.947000000     0.327000000
C     0.147000000    -1.209000000    -0.600000000
H     0.479000000    -2.101000000    -1.126000000
C     1.025000000    -0.116000000    -0.644000000
H     2.023000000    -0.172000000    -1.123000000
C     0.617000000     1.134000000    -0.192000000
H     1.252000000     1.974000000    -0.459000000
C    -0.494000000     1.249000000     0.615000000
H    -0.750000000     2.211000000     1.051000000
C    -1.323000000     0.145000000     0.832000000
C    -2.560000000     0.317000000     1.674000000
O    -3.261000000    -0.642000000     1.929000000
O    -2.764000000     1.340000000     2.281000000
O     3.658000000     2.401000000     1.761000000
H     3.821000000     2.143000000     0.853000000
H     4.504000000     2.721000000     2.074000000
O    -2.199000000    -0.342000000     4.875000000
H    -1.340000000    -0.388000000     4.456000000
H    -2.821000000    -0.353000000     4.147000000
O     4.592000000     1.880000000    -0.631000000
H     5.271000000     1.215000000    -0.744000000
H     4.521000000     2.298000000    -1.489000000
O    -8.206000000    -1.591000000     1.953000000
H    -8.759000000    -1.807000000     2.703000000
H    -7.339000000    -1.439000000     2.331000000
O     0.794000000    -2.825000000     4.723000000
H     0.177000000    -3.020000000     4.017000000
H     0.784000000    -1.871000000     4.793000000
O    -4.386000000     2.177000000    -1.228000000
H    -4.690000000     3.053000000    -1.466000000
H    -3.569000000     2.067000000    -1.714000000
O    -5.669000000     4.781000000     3.438000000
H    -4.828000000     4.660000000     3.879000000
H    -5.694000000     4.089000000     2.776000000
O    -5.508000000    -0.653000000     3.655000000
H    -5.218000000    -1.336000000     4.259000000
H    -4.753000000    -0.501000000     3.086000000
O     0.584000000     0.012000000     4.611000000
H     0.840000000     0.563000000     5.350000000
H     1.327000000     0.058000000     4.009000000
O    -1.414000000     1.924000000     6.105000000
H    -1.758000000     1.261000000     5.507000000
H    -0.559000000     1.586000000     6.371000000
O    -2.025000000     1.431000000    -2.135000000
H    -1.559000000     0.740000000    -1.664000000
H    -1.346000000     2.066000000    -2.362000000
O    -7.209000000     1.397000000     3.176000000
H    -6.658000000     0.625000000     3.304000000
H    -6.899000000     1.779000000     2.355000000
O    -1.879000000     3.401000000     3.756000000
H    -2.350000000     2.650000000     3.395000000
H    -1.649000000     3.135000000     4.646000000
O    -3.789000000    -5.590000000     1.906000000
H    -4.383000000    -4.924000000     2.253000000
H    -4.103000000    -5.751000000     1.016000000
O     0.355000000    -5.019000000     1.206000000
H     0.714000000    -5.609000000     1.869000000
H     1.059000000    -4.393000000     1.036000000
O     0.667000000    -6.019000000    -1.493000000
H     0.389000000    -5.821000000    -0.599000000
H     1.438000000    -6.576000000    -1.387000000
O     1.324000000     4.562000000     1.590000000
H     1.848000000     3.767000000     1.494000000
H     1.395000000     4.785000000     2.518000000
O     2.520000000    -2.744000000     1.595000000
H     2.906000000    -3.168000000     2.362000000
H     2.434000000    -1.825000000     1.848000000
O    -2.581000000    -0.158000000    -4.244000000
H    -2.501000000     0.403000000    -3.473000000
H    -2.118000000    -0.961000000    -4.005000000
O    -2.135000000    -4.532000000    -0.300000000
H    -1.372000000    -4.596000000     0.275000000
H    -2.881000000    -4.715000000     0.271000000
O    -4.613000000    -3.155000000     4.767000000
H    -5.293000000    -3.516000000     4.198000000
H    -3.970000000    -3.860000000     4.848000000
O     2.297000000     1.667000000    -6.392000000
H     1.759000000     1.526000000    -5.613000000
H     1.685000000     1.997000000    -7.049000000
O    -5.040000000     2.602000000     1.634000000
H    -4.185000000     2.184000000     1.739000000
H    -5.274000000     2.440000000     0.719000000
O    -4.530000000    -3.522000000    -2.158000000
H    -3.694000000    -3.194000000    -1.826000000
H    -4.679000000    -4.332000000    -1.671000000
O    -0.410000000     3.631000000    -2.571000000
H    -0.965000000     4.116000000    -1.961000000
H    -0.528000000     4.078000000    -3.409000000
O     1.211000000    -4.719000000    -3.935000000
H     1.062000000    -5.323000000    -3.208000000
H     2.012000000    -4.251000000    -3.697000000
O    -1.168000000     5.762000000     1.986000000
H    -0.220000000     5.773000000     1.853000000
H    -1.317000000     5.031000000     2.586000000
O     1.428000000     3.582000000     4.804000000
H     0.614000000     3.573000000     4.299000000
H     1.148000000     3.740000000     5.705000000
O    -6.255000000    -4.154000000     2.665000000
H    -7.020000000    -4.459000000     2.177000000
H    -5.840000000    -3.516000000     2.085000000
O     3.718000000    -3.490000000    -3.193000000
H     4.033000000    -3.514000000    -4.097000000
H     3.693000000    -2.558000000    -2.973000000
O    -2.039000000     4.870000000    -0.651000000
H    -2.947000000     5.174000000    -0.647000000
H    -1.794000000     4.835000000     0.274000000
O    -1.810000000    -3.304000000     3.448000000
H    -2.424000000    -2.639000000     3.137000000
H    -2.355000000    -4.073000000     3.616000000
O     4.483000000    -0.726000000    -4.395000000
H     4.895000000     0.125000000    -4.540000000
H     5.154000000    -1.362000000    -4.644000000
O     2.645000000    -0.114000000     2.597000000
H     3.574000000    -0.049000000     2.822000000
H     2.457000000     0.696000000     2.122000000
O    -5.037000000    -2.230000000     0.977000000
H    -5.258000000    -1.777000000     0.164000000
H    -4.329000000    -1.709000000     1.357000000
O     4.031000000     2.724000000    -3.515000000
H     3.751000000     3.444000000    -4.081000000
H     4.773000000     2.332000000    -3.975000000
O    -5.937000000    -0.143000000    -1.040000000
H    -5.838000000    -0.168000000    -1.992000000
H    -5.387000000     0.589000000    -0.762000000
O     0.404000000     6.108000000    -0.465000000
H     0.864000000     5.681000000     0.258000000
H    -0.492000000     5.777000000    -0.408000000
O     1.123000000    -0.660000000    -4.223000000
H     1.001000000     0.283000000    -4.114000000
H     2.060000000    -0.763000000    -4.387000000
O    -4.812000000     5.014000000    -0.103000000
H    -5.727000000     5.190000000     0.116000000
H    -4.457000000     4.584000000     0.676000000
O     7.041000000     0.881000000    -1.395000000
H     7.278000000     1.326000000    -2.208000000
H     7.316000000     1.483000000    -0.703000000
O     1.408000000     1.924000000    -3.964000000
H     2.222000000     2.427000000    -4.002000000
H     0.799000000     2.491000000    -3.491000000
O     3.871000000    -1.408000000    -0.305000000
H     3.216000000    -1.888000000     0.201000000
H     3.625000000    -0.489000000    -0.205000000
O    -4.661000000     2.075000000     4.671000000
H    -4.736000000     1.588000000     3.850000000
H    -5.489000000     1.912000000     5.122000000
O    -0.953000000    -2.280000000    -3.619000000
H    -0.676000000    -3.187000000    -3.751000000
H    -0.160000000    -1.764000000    -3.763000000
O     5.392000000     4.812000000     0.228000000
H     4.831000000     5.395000000     0.738000000
H     4.997000000     3.947000000     0.333000000
O     6.597000000    -1.825000000    -1.421000000
H     6.782000000    -0.888000000    -1.483000000
H     5.647000000    -1.888000000    -1.518000000
O     5.394000000    -4.995000000    -1.563000000
H     4.849000000    -5.139000000    -0.789000000
H     4.823000000    -4.532000000    -2.175000000
