158
-3062.86095
C    -0.597000000    -0.861000000     0.954000000
H    -1.056000000    -1.635000000     1.563000000
C     0.292000000    -1.240000000    -0.012000000
H     0.600000000    -2.274000000    -0.142000000
C     0.857000000    -0.287000000    -0.836000000
H     1.649000000    -0.577000000    -1.532000000
C     0.466000000     1.010000000    -0.670000000
H     0.840000000     1.793000000    -1.325000000
C    -0.343000000     1.405000000     0.319000000
H    -0.647000000     2.445000000     0.409000000
C    -0.940000000     0.476000000     1.153000000
C    -2.144000000     0.765000000     2.086000000
O    -2.527000000    -0.203000000     2.732000000
O    -2.464000000     1.858000000     2.502000000
O     0.666000000    -1.072000000     6.422000000
H     1.050000000    -1.939000000     6.557000000
H     0.157000000    -1.159000000     5.615000000
O     5.587000000     3.454000000    -1.786000000
H     5.545000000     3.841000000    -2.660000000
H     4.740000000     3.022000000    -1.674000000
O     1.708000000    -4.635000000     0.913000000
H     1.747000000    -3.740000000     1.250000000
H     2.617000000    -4.935000000     0.923000000
O     1.508000000    -2.721000000     2.713000000
H     0.657000000    -3.018000000     3.033000000
H     1.591000000    -1.827000000     3.045000000
O    -2.974000000     3.291000000    -0.548000000
H    -2.382000000     3.987000000    -0.265000000
H    -2.538000000     2.898000000    -1.304000000
O    -5.315000000     2.207000000    -0.319000000
H    -4.490000000     2.691000000    -0.280000000
H    -5.082000000     1.315000000    -0.064000000
O    -5.274000000    -0.242000000     4.183000000
H    -4.317000000    -0.229000000     4.193000000
H    -5.512000000     0.217000000     3.377000000
O     2.166000000     0.107000000     2.970000000
H     2.488000000     0.618000000     3.713000000
H     2.443000000     0.604000000     2.200000000
O    -0.391000000     1.555000000     6.342000000
H    -0.156000000     0.640000000     6.189000000
H     0.371000000     1.928000000     6.784000000
O    -2.448000000    -0.304000000    -1.995000000
H    -2.774000000     0.543000000    -2.299000000
H    -1.616000000    -0.101000000    -1.568000000
O    -0.953000000     3.514000000     4.118000000
H    -1.457000000     2.935000000     3.545000000
H    -0.735000000     2.970000000     4.875000000
O    -3.264000000    -4.708000000     2.991000000
H    -2.768000000    -4.383000000     2.240000000
H    -3.650000000    -5.529000000     2.686000000
O    -0.311000000    -2.607000000    -6.628000000
H    -0.407000000    -1.840000000    -7.193000000
H    -0.822000000    -2.395000000    -5.847000000
O     2.676000000     1.310000000    -3.697000000
H     2.651000000     1.937000000    -4.420000000
H     1.928000000     1.546000000    -3.149000000
O     0.631000000    -5.956000000    -1.521000000
H     1.051000000    -5.514000000    -2.259000000
H     1.083000000    -5.615000000    -0.749000000
O     2.841000000     3.835000000    -0.204000000
H     2.317000000     4.097000000     0.553000000
H     2.419000000     4.265000000    -0.947000000
O    -1.648000000     6.373000000    -2.129000000
H    -1.755000000     6.249000000    -1.186000000
H    -2.485000000     6.736000000    -2.419000000
O     3.664000000    -1.814000000     0.775000000
H     3.272000000    -1.626000000     1.627000000
H     3.646000000    -0.977000000     0.312000000
O    -0.921000000    -2.215000000    -3.849000000
H    -0.897000000    -1.524000000    -3.187000000
H    -1.458000000    -2.903000000    -3.458000000
O    -3.259000000     2.077000000     7.995000000
H    -3.017000000     2.325000000     7.102000000
H    -2.467000000     2.234000000     8.510000000
O    -1.478000000    -4.199000000     1.115000000
H    -0.525000000    -4.221000000     1.191000000
H    -1.666000000    -3.365000000     0.686000000
O    -2.426000000    -3.629000000     5.196000000
H    -3.180000000    -3.784000000     5.765000000
H    -2.684000000    -3.997000000     4.351000000
O    -6.485000000    -2.597000000     4.800000000
H    -6.345000000    -2.989000000     3.938000000
H    -6.085000000    -1.730000000     4.737000000
O    -6.438000000     4.534000000     0.786000000
H    -5.989000000     3.724000000     0.546000000
H    -7.252000000     4.244000000     1.199000000
O     1.108000000    -4.271000000    -3.562000000
H     0.564000000    -3.490000000    -3.662000000
H     1.935000000    -3.943000000    -3.208000000
O    -3.799000000     4.078000000     2.735000000
H    -3.357000000     3.230000000     2.710000000
H    -4.445000000     4.033000000     2.030000000
O     1.514000000     3.436000000    -5.904000000
H     1.077000000     4.212000000    -6.254000000
H     2.196000000     3.784000000    -5.329000000
O     1.192000000     5.795000000    -1.995000000
H     1.394000000     6.583000000    -1.492000000
H     0.241000000     5.817000000    -2.103000000
O     3.407000000    -3.301000000    -2.622000000
H     3.747000000    -2.436000000    -2.851000000
H     4.064000000    -3.667000000    -2.029000000
O     1.864000000     6.662000000     2.827000000
H     1.344000000     6.780000000     3.622000000
H     1.600000000     5.804000000     2.494000000
O     1.140000000     4.060000000     2.195000000
H     0.255000000     3.706000000     2.276000000
H     1.573000000     3.811000000     3.012000000
O    -7.198000000    -0.767000000     1.270000000
H    -7.309000000    -1.623000000     1.684000000
H    -6.429000000    -0.870000000     0.709000000
O     4.274000000    -0.747000000    -3.159000000
H     5.019000000    -0.321000000    -3.583000000
H     3.560000000    -0.114000000    -3.239000000
O    -4.168000000    -1.430000000    -3.624000000
H    -3.376000000    -1.157000000    -3.161000000
H    -4.508000000    -0.624000000    -4.012000000
O    -1.782000000     5.688000000     0.748000000
H    -2.441000000     5.402000000     1.381000000
H    -1.034000000     5.949000000     1.284000000
O    -0.603000000    -1.694000000     4.226000000
H    -1.054000000    -1.073000000     3.654000000
H    -1.296000000    -2.270000000     4.548000000
O     3.395000000     1.260000000     0.730000000
H     4.319000000     1.469000000     0.866000000
H     3.017000000     2.066000000     0.378000000
O    -4.451000000    -0.433000000     0.511000000
H    -4.113000000    -0.512000000    -0.381000000
H    -3.709000000    -0.664000000     1.070000000
O     2.946000000     4.424000000    -3.692000000
H     2.242000000     5.032000000    -3.465000000
H     3.737000000     4.961000000    -3.685000000
O    -4.694000000    -0.304000000     7.167000000
H    -4.245000000     0.442000000     6.771000000
H    -5.599000000    -0.011000000     7.272000000
O    -0.361000000     1.309000000    -4.581000000
H    -0.376000000     0.714000000    -5.330000000
H     0.100000000     2.085000000    -4.899000000
O    -3.511000000     6.189000000     4.298000000
H    -3.504000000     5.301000000     3.941000000
H    -4.134000000     6.664000000     3.748000000
O    -0.784000000     6.179000000     3.898000000
H    -0.682000000     5.278000000     3.593000000
H    -1.730000000     6.305000000     3.964000000
O     7.392000000     1.341000000    -2.858000000
H     6.657000000     1.884000000    -2.573000000
H     7.928000000     1.233000000    -2.073000000
O    -2.487000000     2.281000000    -3.020000000
H    -3.054000000     2.940000000    -3.420000000
H    -1.936000000     1.971000000    -3.739000000
O     5.621000000    -2.459000000    -0.931000000
H     5.062000000    -2.297000000    -0.172000000
H     5.394000000    -1.764000000    -1.548000000
O    -2.990000000     1.364000000     5.213000000
H    -3.023000000     1.617000000     4.290000000
H    -2.064000000     1.182000000     5.378000000
O    -1.570000000    -4.078000000    -2.065000000
H    -2.148000000    -4.703000000    -2.502000000
H    -0.735000000    -4.538000000    -1.984000000
