158
-3053.97045
C    -0.357000000    -1.137000000     0.851000000
H    -0.592000000    -2.088000000     1.322000000
C     0.803000000    -1.028000000     0.049000000
H     1.468000000    -1.876000000    -0.092000000
C     1.049000000     0.132000000    -0.697000000
H     1.911000000     0.206000000    -1.371000000
C     0.028000000     1.116000000    -0.779000000
H     0.138000000     1.916000000    -1.507000000
C    -1.130000000     1.019000000     0.026000000
H    -1.843000000     1.837000000    -0.021000000
C    -1.314000000    -0.108000000     0.821000000
C    -2.495000000    -0.271000000     1.807000000
O    -2.430000000    -1.047000000     2.734000000
O    -3.569000000     0.295000000     1.564000000
O    -1.042000000    -4.529000000    -0.611000000
H    -0.312000000    -5.123000000    -0.783000000
H    -1.342000000    -4.259000000    -1.479000000
O     5.402000000     4.441000000     0.901000000
H     6.006000000     3.817000000     1.301000000
H     5.040000000     3.975000000     0.147000000
O    -1.783000000     5.483000000     2.765000000
H    -1.078000000     4.897000000     2.491000000
H    -2.165000000     5.057000000     3.532000000
O     4.760000000     3.281000000    -1.564000000
H     4.725000000     2.324000000    -1.580000000
H     4.618000000     3.541000000    -2.474000000
O    -5.148000000     2.138000000     0.339000000
H    -5.245000000     2.913000000     0.892000000
H    -4.582000000     1.553000000     0.843000000
O    -6.487000000    -0.725000000    -1.175000000
H    -5.538000000    -0.797000000    -1.277000000
H    -6.703000000    -1.359000000    -0.492000000
O    -6.368000000    -0.402000000     2.385000000
H    -5.531000000     0.018000000     2.187000000
H    -6.394000000    -1.168000000     1.812000000
O     2.204000000    -0.508000000     2.901000000
H     2.029000000    -1.143000000     3.596000000
H     2.013000000    -0.981000000     2.091000000
O    -5.491000000     3.244000000    -2.142000000
H    -5.025000000     2.833000000    -1.414000000
H    -6.417000000     3.138000000    -1.924000000
O    -2.393000000    -2.823000000     5.867000000
H    -1.598000000    -2.792000000     5.334000000
H    -2.080000000    -3.001000000     6.754000000
O    -8.212000000     1.217000000     1.363000000
H    -7.484000000     1.828000000     1.245000000
H    -7.836000000     0.489000000     1.858000000
O     0.666000000     3.738000000     2.160000000
H     1.453000000     3.985000000     2.646000000
H     0.996000000     3.380000000     1.336000000
O     1.776000000     4.592000000    -1.999000000
H     1.720000000     5.143000000    -1.218000000
H     2.352000000     3.872000000    -1.743000000
O    -3.795000000     1.385000000     4.340000000
H    -4.204000000     0.596000000     4.695000000
H    -3.470000000     1.120000000     3.479000000
O    -1.729000000    -3.554000000    -3.074000000
H    -1.304000000    -3.767000000    -3.905000000
H    -1.618000000    -2.607000000    -2.984000000
O     2.066000000    -5.245000000     2.326000000
H     2.558000000    -4.445000000     2.138000000
H     2.455000000    -5.581000000     3.133000000
O     2.183000000    -1.916000000    -6.880000000
H     2.762000000    -1.311000000    -6.418000000
H     2.078000000    -1.530000000    -7.750000000
O     0.132000000    -3.103000000    -5.680000000
H     0.861000000    -2.688000000    -6.142000000
H    -0.133000000    -2.460000000    -5.023000000
O     2.388000000     2.651000000    -0.057000000
H     1.762000000     1.936000000    -0.172000000
H     3.158000000     2.236000000     0.332000000
O     1.409000000     2.869000000    -5.648000000
H     0.515000000     2.527000000    -5.610000000
H     1.329000000     3.781000000    -5.368000000
O    -0.232000000     5.005000000    -3.777000000
H     0.534000000     4.965000000    -3.204000000
H    -0.943000000     4.637000000    -3.252000000
O    -6.776000000    -2.721000000     0.710000000
H    -7.451000000    -3.270000000     1.110000000
H    -6.064000000    -3.327000000     0.505000000
O    -0.975000000    -0.950000000    -2.725000000
H    -0.954000000    -0.309000000    -3.435000000
H    -0.733000000    -0.452000000    -1.945000000
O     4.157000000     1.395000000     1.644000000
H     4.759000000     1.289000000     2.381000000
H     3.294000000     1.201000000     2.010000000
O     6.281000000     1.325000000    -0.054000000
H     6.705000000     2.060000000     0.390000000
H     5.581000000     1.058000000     0.540000000
O    -0.311000000    -0.168000000    -5.600000000
H     0.015000000     0.567000000    -6.120000000
H    -1.170000000    -0.363000000    -5.974000000
O    -3.753000000    -0.426000000    -1.238000000
H    -3.318000000     0.173000000    -1.845000000
H    -3.528000000    -0.091000000    -0.370000000
O     3.797000000    -5.714000000    -0.415000000
H     2.972000000    -5.960000000    -0.834000000
H     3.532000000    -5.225000000     0.364000000
O    -4.526000000    -4.148000000     4.872000000
H    -3.724000000    -3.733000000     5.190000000
H    -4.648000000    -3.792000000     3.993000000
O    -0.393000000    -2.210000000     4.060000000
H    -0.403000000    -2.960000000     3.465000000
H    -1.092000000    -1.641000000     3.740000000
O     1.328000000    -1.800000000     6.108000000
H     0.728000000    -1.933000000     5.374000000
H     1.120000000    -0.923000000     6.430000000
O    -4.044000000    -3.170000000     2.446000000
H    -3.961000000    -3.491000000     1.548000000
H    -3.572000000    -2.337000000     2.447000000
O    -2.534000000     4.380000000    -2.401000000
H    -2.752000000     4.613000000    -1.499000000
H    -3.379000000     4.331000000    -2.847000000
O     3.912000000    -2.186000000    -1.496000000
H     4.644000000    -2.362000000    -2.087000000
H     3.184000000    -1.961000000    -2.076000000
O     0.216000000     1.363000000     4.231000000
H     0.822000000     0.756000000     3.806000000
H     0.121000000     2.083000000     3.608000000
O    -4.674000000    -1.143000000     5.686000000
H    -3.802000000    -1.517000000     5.808000000
H    -5.150000000    -1.805000000     5.183000000
O     3.532000000    -3.301000000     1.110000000
H     4.095000000    -2.683000000     1.577000000
H     3.460000000    -2.939000000     0.227000000
O    -3.016000000     4.789000000     0.305000000
H    -2.571000000     5.321000000     0.965000000
H    -3.780000000     4.433000000     0.760000000
O    -3.159000000    -2.999000000     0.045000000
H    -3.406000000    -2.224000000    -0.460000000
H    -2.267000000    -3.195000000    -0.239000000
O     2.227000000    -1.127000000    -3.587000000
H     2.668000000    -0.896000000    -4.404000000
H     1.592000000    -0.424000000    -3.450000000
O     2.276000000    -4.255000000    -3.690000000
H     2.683000000    -4.778000000    -4.381000000
H     2.159000000    -3.390000000    -4.082000000
O     1.159000000    -5.930000000    -1.806000000
H     1.613000000    -5.216000000    -2.252000000
H     0.773000000    -6.448000000    -2.512000000
O    -3.050000000     1.507000000    -3.007000000
H    -3.846000000     1.657000000    -3.517000000
H    -2.614000000     2.360000000    -2.988000000
O    -0.380000000    -4.353000000     2.348000000
H    -0.832000000    -4.491000000     1.516000000
H     0.478000000    -4.760000000     2.225000000
O    -1.964000000     0.197000000     6.392000000
H    -2.620000000     0.873000000     6.224000000
H    -1.571000000     0.028000000     5.535000000
O     4.224000000    -0.367000000    -5.872000000
H     4.851000000    -1.058000000    -5.658000000
H     4.758000000     0.424000000    -5.955000000
O     6.349000000    -1.973000000    -3.193000000
H     6.405000000    -1.951000000    -4.148000000
H     6.461000000    -2.896000000    -2.967000000
O     7.649000000     0.160000000    -2.429000000
H     7.420000000    -0.674000000    -2.838000000
H     6.950000000     0.315000000    -1.794000000
