158
-3026.29965
C    -0.696000000    -1.394000000     0.021000000
H    -0.993000000    -2.439000000    -0.014000000
C     0.350000000    -1.009000000    -0.859000000
H     0.771000000    -1.737000000    -1.548000000
C     0.876000000     0.303000000    -0.802000000
H     1.695000000     0.611000000    -1.557000000
C     0.317000000     1.257000000     0.051000000
H     0.559000000     2.317000000     0.030000000
C    -0.656000000     0.811000000     0.927000000
H    -1.138000000     1.604000000     1.493000000
C    -1.133000000    -0.483000000     0.962000000
C    -2.159000000    -0.814000000     2.000000000
O    -2.777000000    -1.864000000     1.923000000
O    -2.444000000    -0.035000000     2.885000000
O     2.707000000     1.956000000     4.411000000
H     3.410000000     1.773000000     5.034000000
H     2.113000000     1.210000000     4.494000000
O     4.533000000     0.635000000     1.182000000
H     3.761000000     0.810000000     0.644000000
H     5.146000000     1.334000000     0.957000000
O    -2.216000000    -1.326000000     5.240000000
H    -2.864000000    -2.018000000     5.109000000
H    -2.112000000    -0.928000000     4.376000000
O     3.896000000     1.912000000    -1.162000000
H     4.092000000     1.734000000    -2.082000000
H     3.556000000     2.807000000    -1.158000000
O     0.972000000    -4.939000000     1.862000000
H     0.138000000    -4.494000000     2.009000000
H     1.582000000    -4.237000000     1.636000000
O    -3.229000000     4.870000000     4.456000000
H    -2.353000000     4.607000000     4.175000000
H    -3.821000000     4.385000000     3.881000000
O     6.209000000     1.322000000    -2.904000000
H     6.500000000     0.413000000    -2.984000000
H     5.680000000     1.474000000    -3.687000000
O    -7.248000000    -1.324000000     2.718000000
H    -6.338000000    -1.615000000     2.771000000
H    -7.710000000    -2.055000000     2.308000000
O     2.644000000    -2.866000000     1.942000000
H     3.572000000    -2.723000000     1.756000000
H     2.253000000    -1.993000000     1.899000000
O     0.438000000     0.405000000     4.776000000
H     0.045000000    -0.461000000     4.888000000
H     0.597000000     0.713000000     5.668000000
O    -4.049000000     0.801000000    -0.831000000
H    -3.888000000     0.971000000    -1.758000000
H    -3.736000000     1.587000000    -0.384000000
O    -1.316000000     2.486000000     3.863000000
H    -1.954000000     2.112000000     3.256000000
H    -0.807000000     1.735000000     4.169000000
O    -4.924000000    -2.610000000     3.098000000
H    -4.160000000    -2.155000000     2.743000000
H    -4.647000000    -2.899000000     3.967000000
O     5.422000000     0.592000000    -5.695000000
H     5.616000000    -0.271000000    -6.060000000
H     4.758000000     0.425000000    -5.025000000
O    -0.463000000    -5.553000000    -1.657000000
H     0.195000000    -4.898000000    -1.889000000
H     0.035000000    -6.257000000    -1.241000000
O     2.764000000     4.365000000    -0.303000000
H     2.667000000     4.146000000     0.624000000
H     1.874000000     4.329000000    -0.653000000
O    -2.229000000     3.467000000    -3.076000000
H    -2.888000000     2.773000000    -3.032000000
H    -2.735000000     4.279000000    -3.055000000
O     3.988000000    -5.828000000    -0.855000000
H     3.338000000    -5.441000000    -1.443000000
H     3.821000000    -6.769000000    -0.900000000
O    -1.935000000    -0.892000000    -3.631000000
H    -2.398000000    -1.655000000    -3.286000000
H    -1.273000000    -0.693000000    -2.969000000
O    -4.178000000    -5.405000000    -1.324000000
H    -3.774000000    -4.669000000    -1.783000000
H    -5.009000000    -5.059000000    -1.000000000
O    -3.254000000    -4.364000000     5.366000000
H    -3.926000000    -4.825000000     4.865000000
H    -2.999000000    -4.982000000     6.051000000
O     0.051000000    -4.734000000     5.000000000
H    -0.009000000    -4.079000000     5.695000000
H    -0.373000000    -4.323000000     4.247000000
O     2.268000000    -4.729000000    -2.598000000
H     2.471000000    -3.802000000    -2.725000000
H     2.276000000    -5.099000000    -3.481000000
O    -5.216000000     1.140000000     2.386000000
H    -4.512000000     0.492000000     2.419000000
H    -6.017000000     0.630000000     2.508000000
O     1.466000000    -0.599000000    -6.106000000
H     1.356000000     0.036000000    -6.814000000
H     1.514000000    -0.066000000    -5.312000000
O     0.084000000     4.422000000    -1.711000000
H    -0.811000000     4.554000000    -1.401000000
H     0.009000000     3.733000000    -2.372000000
O     2.595000000    -2.181000000    -3.709000000
H     2.410000000    -2.241000000    -4.646000000
H     3.538000000    -2.330000000    -3.641000000
O     0.008000000     4.851000000     4.016000000
H    -0.460000000     4.018000000     4.072000000
H     0.735000000     4.677000000     3.418000000
O     3.503000000     6.631000000    -1.306000000
H     3.297000000     5.761000000    -0.964000000
H     2.858000000     7.208000000    -0.897000000
O     2.651000000     3.499000000     2.264000000
H     3.597000000     3.528000000     2.121000000
H     2.538000000     2.897000000     2.999000000
O    -0.234000000    -4.459000000    -5.014000000
H    -0.817000000    -3.842000000    -4.572000000
H    -0.642000000    -5.314000000    -4.878000000
O    -7.266000000    -2.201000000    -0.416000000
H    -7.752000000    -2.264000000     0.406000000
H    -6.388000000    -1.923000000    -0.156000000
O     5.283000000    -3.482000000    -3.311000000
H     6.173000000    -3.582000000    -3.648000000
H     5.372000000    -2.874000000    -2.577000000
O    -3.668000000    -2.521000000    -2.350000000
H    -3.405000000    -2.493000000    -1.430000000
H    -4.551000000    -2.152000000    -2.359000000
O    -3.800000000     3.302000000     0.154000000
H    -3.091000000     3.926000000     0.313000000
H    -4.507000000     3.591000000     0.731000000
O    -1.539000000    -4.214000000     2.770000000
H    -1.949000000    -3.386000000     2.519000000
H    -2.262000000    -4.749000000     3.098000000
O     3.369000000     0.930000000    -4.014000000
H     2.820000000     1.687000000    -4.216000000
H     2.866000000     0.434000000    -3.368000000
O     5.160000000    -1.789000000     1.118000000
H     5.988000000    -1.830000000     1.595000000
H     4.860000000    -0.887000000     1.236000000
O    -4.611000000    -1.588000000     0.153000000
H    -4.343000000    -0.711000000    -0.120000000
H    -4.087000000    -1.766000000     0.934000000
O     0.618000000     2.736000000    -4.603000000
H    -0.324000000     2.574000000    -4.543000000
H     0.719000000     3.275000000    -5.387000000
O    -4.699000000    -1.652000000     6.311000000
H    -4.381000000    -2.465000000     6.704000000
H    -5.603000000    -1.843000000     6.062000000
O     7.298000000     2.627000000    -0.371000000
H     6.976000000     2.134000000    -1.125000000
H     8.188000000     2.883000000    -0.616000000
O    -5.266000000     3.777000000     2.783000000
H    -5.441000000     2.838000000     2.727000000
H    -6.120000000     4.188000000     2.650000000
O    -6.744000000    -4.259000000     2.196000000
H    -7.301000000    -4.747000000     2.803000000
H    -6.103000000    -3.822000000     2.757000000
O    -2.032000000     5.464000000    -0.013000000
H    -1.920000000     5.987000000     0.781000000
H    -2.893000000     5.715000000    -0.346000000
O     6.023000000    -1.576000000    -1.519000000
H     6.910000000    -1.686000000    -1.178000000
H     5.455000000    -1.724000000    -0.762000000
O    -4.063000000     0.956000000     5.787000000
H    -3.864000000     0.802000000     4.864000000
H    -4.046000000     0.085000000     6.185000000
O    -2.277000000    -6.988000000     0.390000000
H    -2.746000000    -6.154000000     0.432000000
H    -1.429000000    -6.766000000     0.006000000
