158
-3046.61301
C    -0.440000000    -1.409000000    -0.055000000
H    -0.827000000    -2.409000000    -0.236000000
C    -0.053000000    -0.657000000    -1.095000000
H    -0.209000000    -0.933000000    -2.135000000
C     0.352000000     0.621000000    -0.955000000
H     0.494000000     1.236000000    -1.861000000
C     0.458000000     1.152000000     0.307000000
H     0.753000000     2.193000000     0.410000000
C     0.154000000     0.394000000     1.399000000
H     0.262000000     0.768000000     2.414000000
C    -0.320000000    -0.894000000     1.218000000
C    -0.870000000    -1.597000000     2.460000000
O    -1.494000000    -2.622000000     2.208000000
O    -0.780000000    -1.202000000     3.589000000
O    -0.168000000     3.773000000    -2.577000000
H    -0.169000000     4.701000000    -2.813000000
H     0.411000000     3.364000000    -3.220000000
O     6.032000000     2.435000000    -3.804000000
H     6.117000000     1.715000000    -4.430000000
H     5.198000000     2.272000000    -3.363000000
O     1.715000000     0.369000000    -5.047000000
H     1.603000000    -0.076000000    -4.207000000
H     2.460000000    -0.073000000    -5.455000000
O     0.137000000    -6.429000000    -1.133000000
H    -0.454000000    -6.538000000    -1.878000000
H     0.415000000    -5.514000000    -1.179000000
O     3.020000000    -1.744000000    -3.007000000
H     3.102000000    -2.698000000    -2.992000000
H     3.278000000    -1.469000000    -2.127000000
O    -4.205000000    -1.305000000     1.325000000
H    -3.704000000    -1.990000000     1.768000000
H    -4.640000000    -0.830000000     2.033000000
O     0.741000000    -5.732000000     3.895000000
H     0.853000000    -6.638000000     3.611000000
H    -0.087000000    -5.458000000     3.500000000
O    -0.889000000     2.244000000     4.366000000
H    -0.202000000     2.358000000     5.022000000
H    -1.423000000     1.523000000     4.700000000
O    -2.886000000    -4.750000000    -0.642000000
H    -3.290000000    -4.612000000     0.215000000
H    -2.039000000    -5.150000000    -0.446000000
O    -3.042000000    -0.255000000    -1.117000000
H    -2.159000000    -0.475000000    -0.819000000
H    -3.615000000    -0.561000000    -0.415000000
O     4.159000000    -1.262000000    -5.549000000
H     4.049000000    -1.635000000    -4.674000000
H     4.756000000    -0.525000000    -5.422000000
O    -2.198000000    -3.195000000     7.462000000
H    -1.459000000    -3.096000000     6.862000000
H    -1.802000000    -3.481000000     8.285000000
O    -4.717000000    -3.253000000     4.588000000
H    -4.154000000    -4.013000000     4.735000000
H    -4.860000000    -2.889000000     5.462000000
O     2.628000000    -2.355000000     2.050000000
H     2.510000000    -1.647000000     2.683000000
H     3.343000000    -2.880000000     2.410000000
O     2.856000000     1.824000000     2.706000000
H     2.614000000     1.182000000     3.374000000
H     3.713000000     1.533000000     2.395000000
O     3.331000000    -0.754000000    -0.001000000
H     3.231000000    -1.210000000     0.834000000
H     2.619000000    -0.114000000    -0.011000000
O     1.658000000    -0.227000000     4.188000000
H     0.791000000    -0.607000000     4.044000000
H     1.692000000    -0.060000000     5.130000000
O    -2.564000000    -0.285000000     5.264000000
H    -1.926000000    -0.617000000     4.632000000
H    -2.451000000    -0.844000000     6.034000000
O    -2.063000000    -1.214000000    -6.057000000
H    -2.849000000    -0.884000000    -6.494000000
H    -2.192000000    -2.161000000    -6.016000000
O    -2.381000000    -4.679000000     4.605000000
H    -2.060000000    -4.299000000     3.787000000
H    -1.982000000    -4.144000000     5.291000000
O    -0.001000000    -3.468000000    -5.126000000
H    -0.378000000    -2.611000000    -5.328000000
H    -0.752000000    -4.060000000    -5.101000000
O    -0.934000000    -5.019000000     1.517000000
H    -1.108000000    -4.154000000     1.888000000
H    -0.150000000    -4.896000000     0.981000000
O     5.221000000     5.531000000    -2.386000000
H     5.452000000     5.419000000    -1.464000000
H     4.270000000     5.426000000    -2.410000000
O     1.562000000     3.877000000     3.979000000
H     1.872000000     3.124000000     3.476000000
H     1.552000000     3.572000000     4.886000000
O     2.669000000     6.059000000    -0.804000000
H     2.076000000     5.636000000    -0.182000000
H     3.106000000     6.740000000    -0.293000000
O    -3.509000000     4.121000000    -5.318000000
H    -2.779000000     3.513000000    -5.437000000
H    -3.417000000     4.433000000    -4.418000000
O     1.373000000    -4.016000000    -0.550000000
H     1.783000000    -4.074000000    -1.413000000
H     1.778000000    -3.251000000    -0.143000000
O    -3.800000000    -4.073000000     2.113000000
H    -4.148000000    -3.817000000     2.967000000
H    -3.004000000    -3.551000000     2.012000000
O     1.699000000    -4.288000000     5.780000000
H     1.876000000    -4.865000000     6.523000000
H     1.254000000    -4.847000000     5.144000000
O    -2.995000000     3.729000000    -2.576000000
H    -3.238000000     2.805000000    -2.641000000
H    -2.066000000     3.717000000    -2.346000000
O     1.568000000     4.774000000     1.350000000
H     0.656000000     4.619000000     1.105000000
H     1.632000000     4.460000000     2.252000000
O     4.400000000     1.422000000    -1.510000000
H     4.007000000     0.756000000    -0.947000000
H     4.202000000     2.251000000    -1.075000000
O    -2.420000000     3.436000000     2.095000000
H    -1.607000000     3.295000000     2.580000000
H    -3.070000000     2.907000000     2.557000000
O     1.060000000     2.585000000     6.434000000
H     1.542000000     1.764000000     6.534000000
H     1.521000000     3.204000000     6.999000000
O    -0.715000000     4.316000000     0.054000000
H    -1.278000000     3.651000000     0.450000000
H    -0.401000000     3.913000000    -0.755000000
O    -1.481000000     2.234000000    -5.737000000
H    -0.527000000     2.306000000    -5.775000000
H    -1.645000000     1.589000000    -5.050000000
O    -2.657000000    -7.572000000     1.093000000
H    -3.353000000    -7.754000000     1.723000000
H    -2.237000000    -6.778000000     1.423000000
O     1.314000000     3.194000000    -5.002000000
H     1.938000000     3.841000000    -5.332000000
H     1.661000000     2.354000000    -5.301000000
O    -3.307000000     6.396000000    -2.619000000
H    -2.894000000     5.603000000    -2.278000000
H    -4.228000000     6.312000000    -2.372000000
O     3.571000000    -4.485000000     3.708000000
H     2.698000000    -4.212000000     3.988000000
H     3.964000000    -4.870000000     4.492000000
O     0.267000000    -0.894000000    -7.191000000
H    -0.647000000    -0.902000000    -6.904000000
H     0.722000000    -0.376000000    -6.527000000
O    -0.502000000    -2.809000000     5.515000000
H    -0.445000000    -2.236000000     4.751000000
H     0.360000000    -3.220000000     5.572000000
O    -3.376000000     0.897000000    -3.534000000
H    -4.302000000     0.785000000    -3.751000000
H    -3.291000000     0.531000000    -2.653000000
O     3.801000000     3.258000000     0.600000000
H     3.057000000     3.675000000     1.034000000
H     4.187000000     2.697000000     1.273000000
O    -4.192000000     1.559000000     3.554000000
H    -3.637000000     0.808000000     3.760000000
H    -5.069000000     1.189000000     3.452000000
O    -3.577000000    -2.850000000    -2.468000000
H    -3.327000000    -3.498000000    -1.810000000
H    -2.986000000    -2.113000000    -2.315000000
O    -4.588000000     2.392000000     0.263000000
H    -3.753000000     2.722000000     0.594000000
H    -4.370000000     1.553000000    -0.144000000
O     1.920000000    -4.367000000    -3.303000000
H     1.158000000    -4.154000000    -3.842000000
H     2.175000000    -5.246000000    -3.585000000
