158
-3036.52012
C    -0.452000000    -1.158000000     0.817000000
H    -0.624000000    -2.130000000     1.272000000
C     0.325000000    -1.209000000    -0.357000000
H     0.699000000    -2.178000000    -0.679000000
C     0.648000000    -0.062000000    -1.059000000
H     1.217000000    -0.112000000    -1.980000000
C     0.193000000     1.223000000    -0.557000000
H     0.492000000     2.101000000    -1.124000000
C    -0.493000000     1.288000000     0.634000000
H    -0.771000000     2.228000000     1.104000000
C    -0.887000000     0.059000000     1.300000000
C    -1.591000000     0.115000000     2.607000000
O    -1.881000000    -0.935000000     3.121000000
O    -1.872000000     1.157000000     3.187000000
O    -3.491000000     2.473000000    -2.792000000
H    -3.761000000     2.700000000    -3.682000000
H    -3.160000000     1.578000000    -2.863000000
O    -2.455000000    -3.440000000     7.878000000
H    -1.752000000    -4.049000000     8.104000000
H    -2.291000000    -3.214000000     6.962000000
O    -5.513000000     4.038000000     0.975000000
H    -4.919000000     3.457000000     1.450000000
H    -5.647000000     3.605000000     0.132000000
O     3.984000000    -3.697000000    -0.059000000
H     4.929000000    -3.611000000    -0.184000000
H     3.672000000    -2.797000000     0.036000000
O     5.029000000     3.020000000    -2.761000000
H     4.376000000     2.365000000    -3.007000000
H     5.736000000     2.905000000    -3.396000000
O     3.820000000     4.031000000    -0.531000000
H     4.179000000     3.566000000     0.226000000
H     4.359000000     3.741000000    -1.267000000
O     3.452000000    -1.115000000     0.414000000
H     2.582000000    -0.726000000     0.495000000
H     3.774000000    -1.174000000     1.313000000
O    -5.716000000    -1.164000000     2.050000000
H    -5.855000000    -0.321000000     1.617000000
H    -6.448000000    -1.707000000     1.757000000
O     1.819000000    -5.177000000     0.820000000
H     1.909000000    -5.862000000     0.157000000
H     2.568000000    -4.600000000     0.670000000
O    -1.546000000     3.318000000     4.644000000
H    -1.906000000     2.636000000     4.077000000
H    -0.773000000     2.916000000     5.040000000
O    -0.781000000     7.598000000     1.318000000
H    -1.429000000     8.101000000     1.812000000
H    -1.126000000     6.705000000     1.312000000
O    -2.383000000    -5.218000000     1.097000000
H    -2.686000000    -4.344000000     1.340000000
H    -1.766000000    -5.067000000     0.381000000
O    -3.850000000     2.286000000     2.128000000
H    -4.163000000     1.677000000     1.459000000
H    -3.144000000     1.815000000     2.570000000
O    -5.331000000    -2.641000000     4.872000000
H    -5.567000000    -2.184000000     4.064000000
H    -4.671000000    -2.080000000     5.279000000
O     6.469000000    -0.243000000    -2.293000000
H     6.467000000     0.405000000    -2.998000000
H     6.802000000     0.232000000    -1.532000000
O     1.724000000    -1.412000000     5.105000000
H     1.400000000    -1.911000000     5.855000000
H     2.055000000    -0.598000000     5.483000000
O     3.145000000     1.715000000     4.593000000
H     2.204000000     1.590000000     4.471000000
H     3.252000000     2.663000000     4.672000000
O     3.959000000    -1.564000000     3.383000000
H     4.280000000    -2.464000000     3.437000000
H     3.122000000    -1.580000000     3.847000000
O     0.331000000     1.395000000     4.787000000
H    -0.209000000     1.215000000     4.018000000
H    -0.032000000     0.833000000     5.471000000
O    -1.638000000     5.170000000     6.938000000
H    -1.786000000     4.715000000     6.109000000
H    -2.472000000     5.101000000     7.401000000
O    -3.748000000    -0.357000000     5.089000000
H    -3.179000000    -0.716000000     4.408000000
H    -3.201000000    -0.341000000     5.874000000
O    -1.635000000    -5.704000000     3.888000000
H    -1.926000000    -5.540000000     2.991000000
H    -2.055000000    -5.016000000     4.405000000
O     1.368000000    -2.728000000    -4.483000000
H     1.596000000    -1.896000000    -4.897000000
H     0.411000000    -2.735000000    -4.470000000
O     3.184000000     1.131000000    -3.462000000
H     2.885000000     0.467000000    -2.841000000
H     2.564000000     1.075000000    -4.190000000
O     1.769000000     0.369000000    -5.564000000
H     0.833000000     0.315000000    -5.756000000
H     2.110000000     0.990000000    -6.208000000
O    -0.520000000    -4.743000000    -0.706000000
H     0.050000000    -4.784000000     0.062000000
H     0.072000000    -4.554000000    -1.434000000
O     2.227000000     5.896000000     0.682000000
H     2.677000000     5.209000000     0.191000000
H     2.797000000     6.066000000     1.432000000
O    -4.495000000     0.541000000     0.035000000
H    -3.996000000    -0.180000000    -0.349000000
H    -5.228000000     0.671000000    -0.566000000
O    -0.506000000     4.405000000    -4.455000000
H     0.314000000     4.110000000    -4.851000000
H    -0.673000000     3.775000000    -3.753000000
O    -0.204000000    -0.231000000     7.212000000
H     0.156000000    -0.648000000     7.995000000
H    -1.152000000    -0.311000000     7.313000000
O     1.700000000    -4.181000000    -2.320000000
H     1.528000000    -3.823000000    -3.191000000
H     2.442000000    -3.671000000    -1.994000000
O    -3.376000000    -2.565000000     1.551000000
H    -4.285000000    -2.268000000     1.492000000
H    -3.046000000    -2.165000000     2.355000000
O     4.356000000     3.106000000     2.040000000
H     3.598000000     2.753000000     2.505000000
H     4.426000000     4.010000000     2.347000000
O     1.017000000     4.763000000    -2.025000000
H     1.929000000     4.493000000    -2.136000000
H     1.055000000     5.480000000    -1.392000000
O     4.205000000    -3.118000000    -4.544000000
H     4.349000000    -2.693000000    -3.698000000
H     3.254000000    -3.119000000    -4.652000000
O    -1.870000000     4.580000000     1.675000000
H    -1.942000000     4.468000000     0.727000000
H    -2.244000000     3.777000000     2.040000000
O    -2.628000000    -5.171000000    -3.284000000
H    -3.132000000    -5.958000000    -3.078000000
H    -2.006000000    -5.089000000    -2.562000000
O     0.384000000     5.042000000     3.538000000
H     0.343000000     4.918000000     2.589000000
H    -0.115000000     4.309000000     3.897000000
O    -0.954000000     0.535000000    -5.485000000
H    -1.466000000     0.112000000    -4.796000000
H    -1.172000000     0.046000000    -6.279000000
O    -2.402000000     3.819000000    -0.850000000
H    -2.133000000     4.576000000    -1.369000000
H    -2.819000000     3.232000000    -1.480000000
O     0.902000000    -6.665000000     2.833000000
H     0.032000000    -6.369000000     3.101000000
H     1.107000000    -6.137000000     2.061000000
O    -1.481000000    -2.913000000     5.398000000
H    -1.450000000    -2.288000000     4.673000000
H    -0.572000000    -3.186000000     5.519000000
O    -2.675000000    -0.168000000    -3.153000000
H    -3.412000000    -0.719000000    -2.888000000
H    -1.962000000    -0.426000000    -2.569000000
O    -1.321000000    -2.559000000    -4.263000000
H    -1.900000000    -1.932000000    -4.697000000
H    -1.913000000    -3.154000000    -3.804000000
O    -3.663000000    -2.078000000    -1.040000000
H    -3.123000000    -2.118000000    -0.250000000
H    -4.392000000    -2.672000000    -0.863000000
O    -5.552000000     1.457000000     3.974000000
H    -5.061000000     1.832000000     3.243000000
H    -5.096000000     0.639000000     4.174000000
O    -5.078000000     1.779000000     6.751000000
H    -4.523000000     1.003000000     6.675000000
H    -5.522000000     1.840000000     5.905000000
O     3.806000000    -1.405000000    -2.219000000
H     3.676000000    -1.309000000    -1.275000000
H     4.690000000    -1.071000000    -2.374000000
