158
-3022.10143
C     1.180000000    -0.812000000    -0.398000000
H     2.074000000    -1.317000000    -0.754000000
C     1.230000000     0.465000000     0.201000000
H     2.176000000     1.001000000     0.207000000
C     0.040000000     1.119000000     0.551000000
H     0.102000000     2.001000000     1.135000000
C    -1.226000000     0.492000000     0.425000000
H    -2.122000000     1.088000000     0.580000000
C    -1.256000000    -0.730000000    -0.237000000
H    -2.202000000    -1.199000000    -0.495000000
C    -0.062000000    -1.450000000    -0.578000000
C    -0.166000000    -2.807000000    -1.298000000
O     0.754000000    -3.227000000    -1.890000000
O    -1.191000000    -3.444000000    -1.359000000
O     1.243000000    -2.503000000    -4.458000000
H     1.128000000    -2.940000000    -3.614000000
H     0.657000000    -2.971000000    -5.052000000
O    -1.825000000    -2.220000000     2.363000000
H    -2.144000000    -2.254000000     1.461000000
H    -2.220000000    -1.427000000     2.726000000
O    -4.555000000     0.302000000    -3.816000000
H    -5.465000000     0.495000000    -3.588000000
H    -4.613000000    -0.429000000    -4.431000000
O     2.879000000    -5.424000000    -4.140000000
H     2.109000000    -5.971000000    -4.293000000
H     3.245000000    -5.275000000    -5.012000000
O     0.335000000    -6.134000000    -1.713000000
H     0.151000000    -5.196000000    -1.651000000
H     0.825000000    -6.229000000    -2.529000000
O    -5.398000000    -1.378000000     2.704000000
H    -5.384000000    -1.076000000     1.796000000
H    -4.609000000    -1.001000000     3.093000000
O     5.545000000    -1.508000000    -3.630000000
H     5.653000000    -2.229000000    -4.251000000
H     4.927000000    -1.842000000    -2.981000000
O     3.509000000     4.981000000    -1.387000000
H     2.598000000     5.157000000    -1.153000000
H     3.914000000     5.847000000    -1.442000000
O    -3.938000000    -7.122000000    -2.949000000
H    -3.381000000    -7.120000000    -2.171000000
H    -3.338000000    -7.304000000    -3.672000000
O     5.448000000    -1.182000000     1.381000000
H     5.269000000    -1.830000000     0.699000000
H     5.968000000    -0.510000000     0.942000000
O     1.920000000     4.380000000     5.770000000
H     1.786000000     3.668000000     5.143000000
H     2.517000000     4.981000000     5.324000000
O    -5.097000000    -1.959000000    -1.725000000
H    -5.122000000    -1.320000000    -1.012000000
H    -4.526000000    -1.561000000    -2.383000000
O     3.393000000    -2.292000000     3.055000000
H     3.930000000    -1.692000000     2.537000000
H     2.497000000    -2.123000000     2.764000000
O     2.545000000    -4.630000000     0.195000000
H     2.936000000    -5.477000000     0.406000000
H     2.100000000    -4.772000000    -0.640000000
O    -5.076000000    -4.509000000    -3.470000000
H    -4.699000000    -5.284000000    -3.054000000
H    -4.350000000    -3.888000000    -3.523000000
O    -1.263000000     4.756000000    -3.031000000
H    -1.041000000     4.608000000    -3.951000000
H    -1.681000000     3.942000000    -2.752000000
O     0.702000000    -1.805000000     2.720000000
H    -0.132000000    -2.238000000     2.906000000
H     0.578000000    -1.408000000     1.858000000
O    -2.615000000     3.519000000    -0.092000000
H    -2.278000000     2.903000000    -0.743000000
H    -3.469000000     3.785000000    -0.433000000
O     2.944000000     6.385000000     3.641000000
H     2.294000000     5.825000000     3.218000000
H     2.588000000     7.269000000     3.562000000
O    -2.256000000     1.904000000    -2.768000000
H    -1.653000000     1.509000000    -3.398000000
H    -3.115000000     1.836000000    -3.184000000
O    -0.236000000    -5.019000000     1.643000000
H     0.524000000    -4.473000000     1.440000000
H    -0.878000000    -4.796000000     0.969000000
O     3.427000000    -3.012000000    -2.560000000
H     3.384000000    -3.628000000    -3.291000000
H     2.534000000    -2.983000000    -2.217000000
O    -3.112000000    -0.086000000     3.597000000
H    -2.489000000     0.374000000     4.159000000
H    -3.610000000     0.611000000     3.170000000
O     3.412000000    -1.494000000    -6.103000000
H     2.804000000    -1.568000000    -5.367000000
H     3.956000000    -2.279000000    -6.045000000
O    -4.108000000    -2.211000000    -5.055000000
H    -4.259000000    -2.995000000    -5.583000000
H    -3.375000000    -2.443000000    -4.486000000
O     6.788000000     1.384000000     2.905000000
H     5.912000000     1.653000000     2.627000000
H     6.639000000     0.855000000     3.689000000
O    -3.160000000     7.017000000     3.200000000
H    -2.760000000     6.267000000     2.759000000
H    -2.652000000     7.119000000     4.005000000
O    -1.558000000     5.414000000     1.392000000
H    -1.953000000     4.706000000     0.883000000
H    -0.850000000     5.742000000     0.838000000
O     0.799000000     5.186000000    -0.680000000
H    -0.008000000     5.016000000    -1.165000000
H     1.038000000     6.082000000    -0.919000000
O     1.865000000     2.699000000     3.530000000
H     1.641000000     3.424000000     2.946000000
H     2.708000000     2.382000000     3.205000000
O     4.641000000     2.453000000    -0.811000000
H     4.081000000     3.224000000    -0.900000000
H     4.741000000     2.124000000    -1.704000000
O    -1.578000000    -8.258000000    -0.896000000
H    -2.372000000    -8.003000000    -0.427000000
H    -0.931000000    -7.597000000    -0.650000000
O     4.811000000    -5.878000000    -2.312000000
H     4.067000000    -5.728000000    -2.895000000
H     5.552000000    -6.020000000    -2.901000000
O     0.321000000     0.462000000     4.317000000
H     0.426000000    -0.264000000     3.701000000
H     0.872000000     1.159000000     3.961000000
O    -1.975000000     2.766000000     4.324000000
H    -2.359000000     2.752000000     3.447000000
H    -1.039000000     2.635000000     4.178000000
O     6.726000000     0.568000000    -0.156000000
H     6.012000000     1.153000000    -0.410000000
H     7.493000000     1.138000000    -0.095000000
O     5.160000000     1.262000000    -3.203000000
H     5.776000000     1.298000000    -3.935000000
H     4.526000000     0.590000000    -3.457000000
O     4.222000000     2.489000000     2.316000000
H     4.717000000     3.301000000     2.424000000
H     4.325000000     2.267000000     1.391000000
O    -2.375000000    -3.796000000    -3.735000000
H    -2.031000000    -3.493000000    -2.894000000
H    -1.599000000    -3.909000000    -4.284000000
O    -3.914000000    -4.932000000     3.081000000
H    -3.220000000    -4.858000000     3.736000000
H    -3.659000000    -4.318000000     2.392000000
O     5.116000000    -3.192000000    -0.501000000
H     5.079000000    -4.041000000    -0.061000000
H     4.504000000    -3.274000000    -1.232000000
O     1.110000000     0.549000000    -3.087000000
H     0.487000000     0.577000000    -2.361000000
H     1.324000000    -0.379000000    -3.185000000
O    -3.716000000     2.239000000     2.214000000
H    -4.405000000     2.801000000     2.568000000
H    -3.389000000     2.713000000     1.450000000
O    -4.833000000    -0.227000000     0.315000000
H    -5.511000000     0.439000000     0.199000000
H    -4.035000000     0.272000000     0.489000000
O    -3.214000000    -3.292000000     0.368000000
H    -4.048000000    -3.018000000    -0.014000000
H    -2.666000000    -3.512000000    -0.385000000
O    -4.991000000     3.677000000    -1.314000000
H    -5.384000000     4.226000000    -1.992000000
H    -5.591000000     2.936000000    -1.228000000
O     1.126000000     5.037000000     2.121000000
H     1.161000000     5.088000000     1.166000000
H     0.310000000     5.480000000     2.354000000
O    -1.672000000     0.582000000     5.958000000
H    -1.785000000     1.532000000     5.955000000
H    -0.952000000     0.424000000     5.347000000
