158
-3031.39605
C    -0.037000000    -1.380000000     0.523000000
H    -0.042000000    -2.466000000     0.579000000
C     0.757000000    -0.924000000    -0.514000000
H     1.372000000    -1.598000000    -1.106000000
C     0.758000000     0.370000000    -0.894000000
H     1.251000000     0.635000000    -1.829000000
C    -0.047000000     1.318000000    -0.187000000
H    -0.054000000     2.365000000    -0.481000000
C    -0.794000000     0.882000000     0.878000000
H    -1.380000000     1.516000000     1.538000000
C    -0.804000000    -0.443000000     1.256000000
C    -1.728000000    -0.917000000     2.347000000
O    -1.783000000    -2.146000000     2.526000000
O    -2.263000000    -0.147000000     3.102000000
O    -4.960000000     3.662000000    -2.620000000
H    -4.509000000     3.515000000    -3.452000000
H    -4.441000000     3.179000000    -1.978000000
O    -4.971000000    -3.345000000     4.542000000
H    -4.197000000    -2.820000000     4.744000000
H    -4.653000000    -4.248000000     4.532000000
O     3.515000000     0.210000000    -3.311000000
H     3.965000000    -0.545000000    -3.690000000
H     4.013000000     0.413000000    -2.519000000
O    -0.808000000     3.540000000    -3.006000000
H    -1.087000000     2.625000000    -3.031000000
H    -1.570000000     4.031000000    -3.313000000
O     2.622000000     5.151000000    -4.255000000
H     2.203000000     6.011000000    -4.227000000
H     2.882000000     5.041000000    -5.170000000
O    -4.656000000    -1.309000000    -0.223000000
H    -5.338000000    -0.937000000     0.337000000
H    -4.394000000    -2.115000000     0.221000000
O     3.089000000    -3.946000000    -3.748000000
H     3.250000000    -4.563000000    -4.462000000
H     2.143000000    -3.805000000    -3.762000000
O    -0.091000000     4.545000000     1.009000000
H    -0.358000000     4.769000000     1.901000000
H     0.351000000     3.701000000     1.095000000
O     1.023000000    -5.129000000     0.391000000
H     0.182000000    -5.193000000     0.843000000
H     0.794000000    -4.896000000    -0.509000000
O    -2.427000000     2.522000000     3.622000000
H    -2.946000000     2.726000000     2.844000000
H    -2.215000000     1.593000000     3.531000000
O     6.892000000    -0.526000000    -1.595000000
H     6.156000000    -0.048000000    -1.214000000
H     6.676000000    -0.601000000    -2.524000000
O    -1.861000000     0.170000000     6.948000000
H    -2.777000000    -0.105000000     6.915000000
H    -1.394000000    -0.593000000     7.286000000
O     5.332000000     4.449000000    -3.119000000
H     5.583000000     5.051000000    -2.417000000
H     4.466000000     4.750000000    -3.393000000
O     2.878000000    -0.426000000     1.558000000
H     2.399000000    -0.838000000     2.278000000
H     2.281000000    -0.482000000     0.812000000
O     3.754000000     2.578000000    -5.227000000
H     4.292000000     3.331000000    -4.980000000
H     3.818000000     1.983000000    -4.480000000
O     0.041000000     2.439000000     5.186000000
H     0.660000000     2.644000000     4.485000000
H    -0.649000000     1.934000000     4.756000000
O    -2.328000000    -3.805000000    -1.695000000
H    -3.156000000    -4.194000000    -1.414000000
H    -2.578000000    -2.975000000    -2.102000000
O    -4.245000000    -0.078000000     4.695000000
H    -4.088000000     0.809000000     5.018000000
H    -3.496000000    -0.262000000     4.128000000
O     1.734000000    -4.170000000     4.201000000
H     0.842000000    -4.498000000     4.312000000
H     1.624000000    -3.301000000     3.816000000
O    -3.347000000    -1.485000000    -2.804000000
H    -2.694000000    -0.956000000    -2.347000000
H    -4.171000000    -1.288000000    -2.357000000
O    -0.614000000     2.559000000    -6.430000000
H    -1.524000000     2.262000000    -6.412000000
H    -0.505000000     3.045000000    -5.612000000
O    -6.699000000     3.041000000     2.032000000
H    -7.221000000     3.285000000     1.268000000
H    -5.803000000     2.983000000     1.701000000
O     1.902000000     1.588000000    -7.223000000
H     2.534000000     2.239000000    -6.916000000
H     1.049000000     1.957000000    -6.994000000
O     0.190000000    -4.831000000    -2.164000000
H     0.370000000    -4.423000000    -3.010000000
H    -0.648000000    -4.459000000    -1.891000000
O     1.690000000     3.968000000    -1.906000000
H     0.786000000     3.701000000    -2.072000000
H     1.920000000     4.516000000    -2.657000000
O    -3.956000000     2.856000000     1.437000000
H    -3.983000000     2.061000000     0.904000000
H    -3.713000000     3.548000000     0.822000000
O     2.223000000     2.941000000     3.259000000
H     2.911000000     3.577000000     3.457000000
H     2.275000000     2.818000000     2.312000000
O     4.909000000     3.546000000    -0.094000000
H     5.807000000     3.672000000     0.212000000
H     4.773000000     4.246000000    -0.732000000
O    -4.178000000    -3.181000000     1.648000000
H    -4.586000000    -3.359000000     2.495000000
H    -3.307000000    -2.849000000     1.867000000
O    -2.450000000     6.543000000     1.704000000
H    -2.454000000     5.882000000     1.012000000
H    -3.178000000     7.125000000     1.483000000
O     5.197000000    -2.290000000    -3.263000000
H     4.431000000    -2.803000000    -3.522000000
H     5.927000000    -2.907000000    -3.314000000
O     0.825000000    -1.335000000     6.360000000
H     1.581000000    -0.843000000     6.040000000
H     0.422000000    -0.758000000     7.010000000
O     0.462000000    -2.990000000    -4.435000000
H     1.087000000    -2.302000000    -4.662000000
H    -0.224000000    -2.920000000    -5.100000000
O    -1.526000000    -4.825000000     1.422000000
H    -1.370000000    -3.897000000     1.596000000
H    -2.452000000    -4.871000000     1.180000000
O     2.483000000     2.995000000     0.535000000
H     3.412000000     3.176000000     0.392000000
H     2.115000000     2.922000000    -0.346000000
O    -0.707000000     6.412000000    -1.672000000
H    -0.678000000     5.480000000    -1.886000000
H    -0.372000000     6.463000000    -0.776000000
O     3.591000000    -5.520000000     1.099000000
H     2.657000000    -5.348000000     0.981000000
H     3.992000000    -5.242000000     0.275000000
O    -1.391000000    -4.942000000     6.188000000
H    -1.228000000    -5.463000000     5.402000000
H    -1.935000000    -4.215000000     5.885000000
O    -2.383000000     4.262000000     5.797000000
H    -1.918000000     5.078000000     5.610000000
H    -2.061000000     3.647000000     5.139000000
O     1.761000000     6.106000000    -0.247000000
H     1.939000000     5.384000000    -0.851000000
H     1.201000000     5.722000000     0.427000000
O     0.972000000    -1.751000000     3.530000000
H     0.159000000    -2.044000000     3.118000000
H     0.704000000    -1.441000000     4.395000000
O     4.698000000     0.371000000    -0.576000000
H     4.611000000     1.113000000     0.022000000
H     4.021000000    -0.244000000    -0.294000000
O    -2.323000000    -2.522000000     5.043000000
H    -2.120000000    -2.265000000     4.144000000
H    -1.953000000    -1.822000000     5.581000000
O    -1.824000000     1.039000000    -3.265000000
H    -2.182000000     1.000000000    -4.152000000
H    -0.920000000     0.738000000    -3.359000000
O     0.972000000    -0.248000000    -4.508000000
H     1.776000000     0.010000000    -4.058000000
H     1.114000000     0.010000000    -5.419000000
O     4.674000000    -4.887000000    -1.609000000
H     5.394000000    -4.600000000    -2.171000000
H     3.884000000    -4.701000000    -2.117000000
O    -3.525000000     1.563000000    -1.179000000
H    -2.754000000     1.182000000    -1.601000000
H    -4.242000000     0.975000000    -1.416000000
O    -5.989000000     0.228000000     2.085000000
H    -6.208000000     1.127000000     2.332000000
H    -5.184000000     0.037000000     2.565000000
