158
-3013.37967
C     1.428000000    -0.142000000     0.381000000
H     2.490000000    -0.213000000     0.598000000
C     0.862000000     1.015000000    -0.018000000
H     1.408000000     1.953000000     0.045000000
C    -0.448000000     1.049000000    -0.431000000
H    -0.797000000     1.994000000    -0.639000000
C    -1.119000000    -0.132000000    -0.442000000
H    -2.169000000    -0.122000000    -0.721000000
C    -0.626000000    -1.268000000     0.064000000
H    -1.173000000    -2.207000000     0.092000000
C     0.653000000    -1.315000000     0.506000000
C     1.196000000    -2.591000000     1.118000000
O     2.390000000    -2.703000000     1.315000000
O     0.402000000    -3.417000000     1.617000000
O    -0.255000000     4.166000000    -5.528000000
H     0.102000000     3.632000000    -4.817000000
H    -1.058000000     4.541000000    -5.166000000
O     3.915000000    -3.069000000    -3.254000000
H     4.002000000    -2.677000000    -2.385000000
H     3.866000000    -4.011000000    -3.088000000
O     4.349000000    -3.805000000     5.266000000
H     4.508000000    -4.436000000     4.565000000
H     3.428000000    -3.563000000     5.166000000
O    -3.659000000    -4.201000000    -1.425000000
H    -4.030000000    -4.867000000    -2.003000000
H    -3.525000000    -4.653000000    -0.592000000
O     0.986000000    -5.646000000    -1.296000000
H     0.309000000    -4.993000000    -1.474000000
H     0.745000000    -6.395000000    -1.841000000
O     2.084000000     6.032000000    -0.203000000
H     1.214000000     6.427000000    -0.144000000
H     2.340000000     6.152000000    -1.117000000
O    -2.581000000     3.656000000     3.337000000
H    -3.256000000     3.619000000     4.015000000
H    -2.287000000     2.750000000     3.242000000
O     2.941000000    -5.339000000     0.756000000
H     2.508000000    -4.567000000     1.121000000
H     2.285000000    -5.730000000     0.178000000
O    -7.234000000     0.362000000    -1.770000000
H    -6.371000000     0.697000000    -1.526000000
H    -7.843000000     1.048000000    -1.497000000
O    -2.593000000    -4.795000000     5.508000000
H    -1.899000000    -5.304000000     5.928000000
H    -2.154000000    -4.340000000     4.789000000
O    -4.250000000     4.745000000     1.487000000
H    -3.662000000     4.375000000     2.146000000
H    -3.925000000     4.401000000     0.655000000
O    -2.341000000     8.000000000    -1.891000000
H    -1.779000000     8.136000000    -1.129000000
H    -1.861000000     7.374000000    -2.434000000
O     6.055000000    -3.712000000     2.578000000
H     6.450000000    -3.456000000     1.744000000
H     5.518000000    -2.961000000     2.830000000
O    -1.501000000    -3.458000000     3.341000000
H    -1.097000000    -2.731000000     3.816000000
H    -1.026000000    -3.496000000     2.511000000
O     6.157000000     0.487000000     1.392000000
H     5.972000000    -0.236000000     0.793000000
H     6.095000000     0.098000000     2.264000000
O    -1.132000000    -0.584000000    -4.190000000
H    -0.298000000    -1.043000000    -4.092000000
H    -1.739000000    -1.069000000    -3.631000000
O     1.880000000    -3.328000000     4.042000000
H     2.089000000    -3.227000000     3.114000000
H     1.098000000    -2.792000000     4.172000000
O     1.111000000    -8.209000000     1.665000000
H     2.018000000    -7.919000000     1.565000000
H     0.639000000    -7.425000000     1.944000000
O    -5.763000000     0.869000000    -4.490000000
H    -5.224000000     0.417000000    -3.840000000
H    -5.132000000     1.267000000    -5.090000000
O    -0.342000000    -1.163000000     4.253000000
H    -0.316000000    -1.010000000     5.197000000
H     0.368000000    -0.624000000     3.903000000
O    -3.475000000     3.807000000    -1.093000000
H    -4.403000000     3.990000000    -1.238000000
H    -3.164000000     3.465000000    -1.932000000
O    -4.797000000    -2.703000000     0.556000000
H    -4.358000000    -3.013000000    -0.236000000
H    -5.722000000    -2.652000000     0.313000000
O    -4.072000000    -2.512000000     3.180000000
H    -4.289000000    -2.846000000     2.310000000
H    -3.241000000    -2.935000000     3.398000000
O    -3.197000000    -2.088000000    -3.035000000
H    -3.245000000    -2.392000000    -2.129000000
H    -3.553000000    -2.812000000    -3.550000000
O     0.080000000    -6.022000000     3.014000000
H     0.010000000    -5.163000000     2.598000000
H    -0.051000000    -5.848000000     3.946000000
O    -2.679000000     1.361000000    -2.911000000
H    -1.799000000     1.461000000    -2.546000000
H    -2.585000000     0.679000000    -3.576000000
O     4.442000000    -2.784000000    -0.407000000
H     4.695000000    -3.702000000    -0.505000000
H     3.736000000    -2.798000000     0.239000000
O    -0.102000000     5.390000000    -2.133000000
H     0.691000000     5.909000000    -2.266000000
H    -0.502000000     5.337000000    -3.001000000
O     1.192000000     0.972000000     3.637000000
H     0.863000000     1.759000000     4.073000000
H     1.799000000     1.301000000     2.974000000
O     5.882000000     2.474000000    -0.602000000
H     5.396000000     2.272000000    -1.401000000
H     5.970000000     1.632000000    -0.155000000
O     3.086000000     4.105000000     1.949000000
H     2.503000000     4.701000000     1.480000000
H     2.784000000     4.140000000     2.857000000
O     3.987000000    -0.597000000     5.931000000
H     3.834000000    -1.132000000     5.152000000
H     4.179000000     0.276000000     5.588000000
O     4.122000000    -1.384000000     3.023000000
H     3.449000000    -1.949000000     2.642000000
H     3.773000000    -0.498000000     2.928000000
O     6.125000000    -0.719000000    -1.342000000
H     5.282000000    -1.172000000    -1.319000000
H     6.115000000    -0.237000000    -2.169000000
O     3.965000000     1.570000000     2.466000000
H     4.740000000     1.366000000     1.943000000
H     3.716000000     2.452000000     2.193000000
O    -1.103000000    -4.479000000    -2.767000000
H    -1.443000000    -3.598000000    -2.611000000
H    -1.578000000    -4.785000000    -3.540000000
O    -3.440000000    -5.626000000     2.783000000
H    -2.990000000    -4.964000000     3.309000000
H    -3.106000000    -5.494000000     1.896000000
O     3.097000000    -6.293000000     4.108000000
H     2.597000000    -6.666000000     4.833000000
H     2.477000000    -5.717000000     3.660000000
O    -2.100000000     0.778000000     3.548000000
H    -1.306000000     0.284000000     3.752000000
H    -2.558000000     0.241000000     2.902000000
O     5.047000000     5.070000000     0.128000000
H     4.128000000     4.884000000     0.318000000
H     5.436000000     4.211000000    -0.038000000
O     1.097000000     3.117000000    -3.286000000
H     0.945000000     3.297000000    -2.358000000
H     1.999000000     3.399000000    -3.440000000
O    -3.031000000     4.452000000    -4.508000000
H    -3.818000000     4.976000000    -4.658000000
H    -3.227000000     3.605000000    -4.910000000
O    -3.904000000    -0.182000000     1.427000000
H    -4.232000000    -1.081000000     1.447000000
H    -4.286000000     0.195000000     0.634000000
O    -2.156000000    -5.573000000     0.447000000
H    -1.998000000    -6.510000000     0.333000000
H    -1.284000000    -5.179000000     0.432000000
O    -3.782000000     7.586000000     0.985000000
H    -3.876000000     6.652000000     1.168000000
H    -3.337000000     7.621000000     0.139000000
O     5.015000000    -6.935000000     0.385000000
H     4.323000000    -6.274000000     0.404000000
H     4.647000000    -7.652000000    -0.131000000
O    -4.722000000     1.097000000    -0.699000000
H    -3.877000000     1.109000000    -1.149000000
H    -4.871000000     2.008000000    -0.445000000
O    -0.727000000     5.769000000     3.804000000
H    -1.286000000     6.407000000     4.247000000
H    -1.307000000     5.030000000     3.618000000
