158
-2992.49891
C     0.896000000    -0.663000000    -1.017000000
H     1.370000000    -1.172000000    -1.852000000
C     0.906000000     0.649000000    -0.737000000
H     1.683000000     1.293000000    -1.142000000
C     0.044000000     1.159000000     0.264000000
H     0.109000000     2.249000000     0.592000000
C    -0.731000000     0.393000000     1.018000000
H    -1.383000000     0.746000000     1.813000000
C    -0.715000000    -0.969000000     0.758000000
H    -1.372000000    -1.609000000     1.342000000
C     0.045000000    -1.498000000    -0.276000000
C    -0.112000000    -3.002000000    -0.592000000
O     0.091000000    -3.380000000    -1.711000000
O    -0.605000000    -3.739000000     0.224000000
O    -4.885000000    -3.579000000    -0.081000000
H    -4.807000000    -2.627000000    -0.136000000
H    -5.819000000    -3.750000000    -0.204000000
O    -1.752000000    -2.725000000    -3.212000000
H    -1.136000000    -3.100000000    -2.583000000
H    -2.070000000    -3.476000000    -3.713000000
O    -5.718000000     5.596000000     1.876000000
H    -6.539000000     5.106000000     1.885000000
H    -5.039000000     4.927000000     1.966000000
O    -1.913000000    -2.715000000     4.277000000
H    -2.343000000    -3.219000000     3.587000000
H    -2.026000000    -1.802000000     4.013000000
O     0.971000000    -5.407000000    -6.344000000
H     0.286000000    -5.826000000    -5.824000000
H     1.409000000    -6.132000000    -6.791000000
O     2.543000000     4.317000000    -0.425000000
H     2.515000000     5.273000000    -0.466000000
H     1.871000000     4.031000000    -1.044000000
O    -0.366000000    -7.038000000     0.035000000
H    -0.498000000    -6.090000000     0.057000000
H    -0.327000000    -7.252000000    -0.898000000
O    -5.258000000    -1.426000000     2.633000000
H    -4.991000000    -1.274000000     1.726000000
H    -4.564000000    -1.027000000     3.157000000
O     5.221000000    -2.579000000    -2.719000000
H     4.367000000    -2.545000000    -3.150000000
H     5.104000000    -3.203000000    -2.002000000
O     2.387000000     2.544000000    -3.832000000
H     1.508000000     2.262000000    -4.085000000
H     2.245000000     3.341000000    -3.322000000
O     4.853000000     1.383000000    -4.500000000
H     4.150000000     1.863000000    -4.061000000
H     4.414000000     0.912000000    -5.209000000
O    -1.364000000     5.741000000    -0.077000000
H    -2.279000000     5.874000000     0.169000000
H    -1.405000000     5.343000000    -0.947000000
O     2.467000000     1.193000000     2.925000000
H     2.823000000     1.814000000     2.290000000
H     2.096000000     0.490000000     2.391000000
O    -0.836000000     4.999000000     5.105000000
H    -1.706000000     4.666000000     4.886000000
H    -0.251000000     4.571000000     4.480000000
O     2.745000000    -6.205000000     1.508000000
H     2.701000000    -6.280000000     0.555000000
H     1.976000000    -5.686000000     1.744000000
O    -4.725000000    -0.820000000    -0.014000000
H    -4.961000000     0.106000000     0.043000000
H    -4.481000000    -0.949000000    -0.930000000
O     2.156000000    -5.255000000    -1.319000000
H     1.737000000    -6.014000000    -1.723000000
H     1.571000000    -4.524000000    -1.519000000
O    -2.999000000     3.642000000    -1.296000000
H    -3.547000000     3.985000000    -2.002000000
H    -2.841000000     2.730000000    -1.537000000
O     0.648000000    -1.731000000     4.353000000
H    -0.168000000    -2.187000000     4.560000000
H     0.420000000    -0.802000000     4.392000000
O    -4.036000000     3.299000000     1.297000000
H    -4.751000000     2.922000000     0.783000000
H    -3.398000000     3.586000000     0.644000000
O     3.218000000     6.198000000     4.933000000
H     3.091000000     5.853000000     4.050000000
H     3.589000000     7.070000000     4.799000000
O    -4.335000000     1.616000000    -3.350000000
H    -3.524000000     1.122000000    -3.227000000
H    -4.732000000     1.233000000    -4.132000000
O     0.838000000    -4.268000000     2.633000000
H     0.941000000    -3.354000000     2.898000000
H     0.257000000    -4.234000000     1.874000000
O     2.268000000    -3.024000000    -3.239000000
H     1.758000000    -3.364000000    -3.974000000
H     1.623000000    -2.873000000    -2.548000000
O    -1.848000000    -0.146000000     4.344000000
H    -2.018000000    -0.014000000     5.277000000
H    -2.433000000     0.470000000     3.904000000
O    -4.346000000    -6.896000000     0.863000000
H    -5.224000000    -6.536000000     0.739000000
H    -3.769000000    -6.281000000     0.410000000
O    -0.714000000    -5.960000000     4.431000000
H    -0.569000000    -5.638000000     5.320000000
H    -0.210000000    -5.366000000     3.875000000
O     0.889000000     7.237000000     0.587000000
H     0.026000000     6.826000000     0.637000000
H     0.745000000     8.037000000     0.082000000
O     0.467000000     4.563000000    -2.553000000
H     0.046000000     5.350000000    -2.900000000
H     0.230000000     3.873000000    -3.172000000
O     1.201000000     3.168000000     4.139000000
H     1.725000000     2.592000000     3.582000000
H     1.711000000     3.977000000     4.194000000
O     5.244000000     4.174000000    -1.508000000
H     4.327000000     4.269000000    -1.250000000
H     5.241000000     4.300000000    -2.457000000
O    -0.935000000    -4.121000000     6.425000000
H    -1.244000000    -3.509000000     7.093000000
H    -1.029000000    -3.644000000     5.601000000
O     0.914000000    -7.546000000    -2.547000000
H     1.676000000    -8.120000000    -2.464000000
H     0.506000000    -7.808000000    -3.372000000
O    -3.172000000     3.459000000     5.146000000
H    -3.167000000     2.992000000     4.310000000
H    -3.526000000     2.826000000     5.771000000
O     3.569000000    -1.403000000     0.572000000
H     2.849000000    -1.303000000    -0.050000000
H     3.926000000    -2.272000000     0.389000000
O     5.754000000     0.120000000    -2.264000000
H     5.658000000     0.578000000    -3.099000000
H     5.485000000    -0.779000000    -2.452000000
O     4.260000000     2.762000000     1.468000000
H     4.844000000     3.398000000     1.881000000
H     3.768000000     3.271000000     0.825000000
O    -4.307000000    -1.931000000    -2.675000000
H    -3.486000000    -1.684000000    -3.099000000
H    -4.949000000    -1.307000000    -3.014000000
O    -2.693000000    -3.526000000     1.880000000
H    -3.431000000    -3.445000000     1.276000000
H    -1.922000000    -3.560000000     1.313000000
O     4.401000000    -4.061000000    -0.269000000
H     4.944000000    -4.808000000    -0.014000000
H     3.622000000    -4.454000000    -0.661000000
O    -1.706000000     0.112000000    -2.641000000
H    -0.993000000     0.318000000    -2.037000000
H    -1.582000000    -0.813000000    -2.852000000
O    -3.846000000     1.456000000     3.382000000
H    -4.737000000     1.339000000     3.712000000
H    -3.952000000     1.983000000     2.590000000
O     2.961000000     0.071000000    -6.084000000
H     3.152000000    -0.607000000    -6.732000000
H     2.006000000     0.072000000    -6.014000000
O    -0.284000000     2.087000000    -4.163000000
H    -0.836000000     1.467000000    -3.685000000
H    -0.843000000     2.408000000    -4.870000000
O     6.412000000    -0.652000000     1.239000000
H     5.483000000    -0.427000000     1.185000000
H     6.533000000    -0.950000000     2.141000000
O    -2.748000000    -5.126000000    -1.210000000
H    -3.523000000    -4.586000000    -1.055000000
H    -2.040000000    -4.663000000    -0.763000000
O    -5.282000000     1.635000000    -0.982000000
H    -5.031000000     1.766000000    -1.897000000
H    -6.110000000     2.106000000    -0.891000000
O     3.201000000     6.198000000     1.898000000
H     2.482000000     6.716000000     1.537000000
H     3.989000000     6.580000000     1.511000000
