158
-3042.55080
C     1.449000000     0.322000000    -0.125000000
H     2.468000000     0.661000000    -0.294000000
C     0.382000000     1.069000000    -0.670000000
H     0.461000000     1.993000000    -1.237000000
C    -0.894000000     0.560000000    -0.596000000
H    -1.825000000     1.080000000    -1.059000000
C    -1.117000000    -0.577000000     0.189000000
H    -2.141000000    -0.935000000     0.259000000
C    -0.118000000    -1.278000000     0.811000000
H    -0.423000000    -2.163000000     1.363000000
C     1.192000000    -0.896000000     0.596000000
C     2.356000000    -1.531000000     1.313000000
O     3.411000000    -0.888000000     1.334000000
O     2.182000000    -2.501000000     2.047000000
O    -3.821000000     0.720000000    -3.851000000
H    -3.971000000     0.032000000    -4.498000000
H    -3.056000000     0.423000000    -3.358000000
O     3.338000000     0.239000000     4.323000000
H     3.147000000     0.768000000     3.549000000
H     2.808000000     0.631000000     5.017000000
O    -0.135000000    -1.328000000    -2.684000000
H    -0.009000000    -0.657000000    -2.013000000
H    -0.022000000    -2.157000000    -2.218000000
O     3.541000000    -5.363000000     4.138000000
H     4.169000000    -5.569000000     4.830000000
H     4.066000000    -5.333000000     3.339000000
O     0.178000000    -0.085000000     4.171000000
H     0.977000000     0.269000000     4.562000000
H     0.210000000    -1.021000000     4.367000000
O    -5.189000000    -1.699000000     2.707000000
H    -5.375000000    -2.629000000     2.575000000
H    -5.952000000    -1.367000000     3.180000000
O    -1.666000000     3.857000000    -3.113000000
H    -2.545000000     3.582000000    -3.372000000
H    -1.265000000     3.068000000    -2.748000000
O     4.917000000    -1.597000000    -1.071000000
H     5.756000000    -1.962000000    -0.789000000
H     4.403000000    -1.526000000    -0.267000000
O    -6.811000000     2.153000000    -1.556000000
H    -7.509000000     2.579000000    -1.059000000
H    -7.270000000     1.643000000    -2.224000000
O    -2.596000000    -3.206000000     3.436000000
H    -2.356000000    -3.740000000     2.679000000
H    -3.257000000    -2.600000000     3.103000000
O    -1.522000000     4.366000000     3.055000000
H    -1.414000000     4.871000000     2.249000000
H    -1.353000000     3.461000000     2.795000000
O     4.531000000    -0.518000000    -3.574000000
H     4.546000000    -0.758000000    -2.647000000
H     5.095000000     0.253000000    -3.631000000
O     6.806000000    -0.817000000     2.311000000
H     6.886000000    -0.340000000     3.137000000
H     6.102000000    -1.447000000     2.465000000
O     2.271000000    -2.809000000     5.622000000
H     2.867000000    -3.057000000     4.915000000
H     1.489000000    -2.487000000     5.174000000
O    -4.440000000     7.207000000    -0.445000000
H    -4.322000000     6.544000000     0.236000000
H    -3.987000000     6.849000000    -1.208000000
O    -0.802000000     0.933000000    -3.974000000
H    -0.560000000     0.104000000    -3.561000000
H    -0.014000000     1.473000000    -3.908000000
O     1.105000000    -4.751000000     2.574000000
H     1.736000000    -5.082000000     3.212000000
H     1.356000000    -3.837000000     2.440000000
O    -4.140000000     5.008000000     1.603000000
H    -3.922000000     4.137000000     1.274000000
H    -4.996000000     4.901000000     2.017000000
O    -0.262000000    -1.929000000    -5.605000000
H     0.655000000    -2.203000000    -5.633000000
H    -0.442000000    -1.790000000    -4.675000000
O     6.175000000    -4.258000000     3.438000000
H     6.810000000    -4.396000000     4.140000000
H     5.543000000    -3.639000000     3.804000000
O     3.213000000    -3.413000000    -2.702000000
H     3.787000000    -2.901000000    -2.133000000
H     2.911000000    -2.789000000    -3.362000000
O    -2.236000000     0.315000000    -6.527000000
H    -2.018000000     0.629000000    -5.649000000
H    -1.846000000    -0.557000000    -6.572000000
O    -0.290000000    -2.544000000     4.862000000
H    -0.960000000    -2.987000000     4.341000000
H    -0.590000000    -2.635000000     5.766000000
O     0.200000000    -5.977000000     0.378000000
H     1.119000000    -6.157000000     0.181000000
H     0.224000000    -5.462000000     1.184000000
O    -1.248000000     5.494000000     0.637000000
H    -0.709000000     5.952000000    -0.008000000
H    -1.863000000     4.980000000     0.114000000
O     6.203000000     2.674000000     2.932000000
H     6.908000000     2.849000000     2.308000000
H     5.597000000     2.108000000     2.455000000
O    -5.508000000    -2.617000000    -2.730000000
H    -5.712000000    -3.533000000    -2.539000000
H    -5.419000000    -2.207000000    -1.870000000
O     5.894000000     0.904000000     5.108000000
H     5.964000000     1.514000000     4.374000000
H     5.137000000     0.358000000     4.896000000
O    -3.866000000     1.594000000     2.339000000
H    -2.965000000     1.890000000     2.207000000
H    -4.151000000     1.302000000     1.474000000
O     7.314000000    -2.436000000    -0.276000000
H     7.786000000    -3.199000000    -0.608000000
H     7.486000000    -2.440000000     0.666000000
O    -1.111000000     1.818000000     2.107000000
H    -0.540000000     1.251000000     2.626000000
H    -1.021000000     1.494000000     1.211000000
O    -0.840000000     4.437000000    -5.482000000
H    -0.146000000     3.853000000    -5.789000000
H    -0.936000000     4.228000000    -4.553000000
O    -4.366000000     3.214000000    -2.993000000
H    -4.280000000     2.302000000    -3.271000000
H    -5.290000000     3.307000000    -2.759000000
O    -3.052000000     0.253000000     4.876000000
H    -2.115000000     0.360000000     4.713000000
H    -3.471000000     0.550000000     4.069000000
O    -3.127000000     3.609000000    -0.489000000
H    -3.446000000     2.717000000    -0.349000000
H    -3.030000000     3.682000000    -1.439000000
O     4.392000000    -2.171000000     3.676000000
H     4.357000000    -1.307000000     4.086000000
H     3.629000000    -2.193000000     3.099000000
O    -4.270000000     4.102000000    -6.631000000
H    -5.140000000     3.722000000    -6.753000000
H    -3.792000000     3.448000000    -6.122000000
O     1.751000000     1.958000000    -3.699000000
H     2.630000000     1.689000000    -3.433000000
H     1.873000000     2.354000000    -4.562000000
O     2.614000000     3.198000000     3.024000000
H     2.753000000     2.641000000     2.258000000
H     3.351000000     3.808000000     3.013000000
O     4.275000000     1.553000000     1.380000000
H     4.964000000     1.517000000     0.717000000
H     3.846000000     0.699000000     1.326000000
O     0.321000000    -3.915000000    -1.819000000
H     0.067000000    -4.345000000    -1.002000000
H     1.251000000    -4.120000000    -1.919000000
O    -4.480000000     1.302000000    -0.308000000
H    -4.543000000     0.357000000    -0.441000000
H    -5.263000000     1.656000000    -0.730000000
O     1.463000000    -5.671000000     6.018000000
H     1.207000000    -4.749000000     6.033000000
H     1.992000000    -5.760000000     5.225000000
O    -3.469000000    -4.502000000     0.943000000
H    -3.263000000    -4.996000000     0.149000000
H    -4.128000000    -3.866000000     0.665000000
O    -0.055000000     6.781000000    -1.635000000
H     0.836000000     6.715000000    -1.294000000
H    -0.120000000     7.677000000    -1.965000000
O    -5.257000000    -1.369000000    -0.372000000
H    -5.414000000    -1.382000000     0.572000000
H    -6.115000000    -1.185000000    -0.755000000
O     4.272000000    -4.230000000     0.653000000
H     5.053000000    -3.862000000     1.068000000
H     3.544000000    -3.746000000     1.042000000
O     6.472000000     0.721000000    -0.114000000
H     6.467000000     0.205000000    -0.920000000
H     6.908000000     0.161000000     0.527000000
