158
-3025.93632
C     1.080000000     0.556000000     0.896000000
H     1.856000000     1.010000000     1.507000000
C     0.626000000     1.060000000    -0.318000000
H     1.164000000     1.891000000    -0.768000000
C    -0.314000000     0.406000000    -1.120000000
H    -0.747000000     0.796000000    -2.024000000
C    -1.008000000    -0.723000000    -0.600000000
H    -1.839000000    -1.103000000    -1.187000000
C    -0.634000000    -1.235000000     0.660000000
H    -1.150000000    -2.113000000     1.040000000
C     0.415000000    -0.612000000     1.346000000
C     0.863000000    -1.066000000     2.708000000
O     1.801000000    -0.537000000     3.292000000
O     0.509000000    -2.153000000     3.171000000
O    -3.646000000     3.373000000    -6.030000000
H    -3.158000000     2.960000000    -5.318000000
H    -2.974000000     3.782000000    -6.576000000
O     2.231000000     1.912000000     4.903000000
H     2.132000000     1.415000000     4.091000000
H     1.906000000     1.324000000     5.584000000
O    -6.701000000    -2.507000000     1.029000000
H    -5.988000000    -1.944000000     0.727000000
H    -7.396000000    -1.899000000     1.282000000
O     5.258000000    -1.926000000     6.323000000
H     5.580000000    -2.204000000     5.465000000
H     4.307000000    -1.891000000     6.222000000
O     0.398000000    -4.200000000    -4.191000000
H     0.582000000    -5.139000000    -4.163000000
H    -0.150000000    -4.040000000    -3.423000000
O    -2.270000000     1.320000000     1.932000000
H    -1.632000000     1.210000000     1.226000000
H    -3.063000000     0.893000000     1.607000000
O     2.011000000     3.894000000     6.589000000
H     2.823000000     4.393000000     6.682000000
H     2.268000000     3.105000000     6.112000000
O    -3.978000000     0.820000000    -3.122000000
H    -3.784000000    -0.035000000    -3.506000000
H    -4.858000000     1.029000000    -3.436000000
O     2.035000000    -1.195000000    -1.465000000
H     1.557000000    -0.612000000    -0.875000000
H     2.215000000    -0.659000000    -2.237000000
O     2.727000000     5.545000000    -1.093000000
H     2.919000000     4.645000000    -1.357000000
H     2.184000000     5.453000000    -0.309000000
O     4.467000000     0.835000000    -0.209000000
H     3.720000000     0.241000000    -0.282000000
H     4.645000000     0.883000000     0.730000000
O     4.443000000    -0.269000000     2.510000000
H     4.863000000    -0.159000000     3.363000000
H     3.533000000    -0.485000000     2.717000000
O     2.915000000    -3.652000000    -0.308000000
H     3.864000000    -3.532000000    -0.336000000
H     2.559000000    -2.827000000    -0.638000000
O    -2.870000000     6.183000000    -3.989000000
H    -2.254000000     5.451000000    -3.963000000
H    -2.353000000     6.940000000    -3.714000000
O     2.917000000     0.049000000    -4.032000000
H     2.575000000    -0.830000000    -4.198000000
H     3.782000000     0.050000000    -4.440000000
O    -0.640000000    -0.931000000     5.764000000
H    -1.216000000    -0.313000000     5.314000000
H    -0.123000000    -1.329000000     5.064000000
O     2.656000000    -1.687000000     5.480000000
H     2.361000000    -1.468000000     4.597000000
H     2.349000000    -0.961000000     6.023000000
O     0.823000000    -4.018000000     5.343000000
H     0.072000000    -3.726000000     4.827000000
H     1.456000000    -3.303000000     5.272000000
O     1.412000000     5.266000000     1.156000000
H     1.512000000     5.578000000     2.055000000
H     0.597000000     4.765000000     1.165000000
O     1.269000000     2.568000000    -3.898000000
H     2.014000000     2.942000000    -3.427000000
H     1.454000000     1.629000000    -3.932000000
O     4.444000000     4.936000000     1.649000000
H     3.585000000     4.534000000     1.773000000
H     4.260000000     5.765000000     1.208000000
O    -2.932000000    -4.623000000    -4.029000000
H    -2.775000000    -5.562000000    -4.126000000
H    -2.325000000    -4.349000000    -3.341000000
O    -4.308000000    -2.545000000    -0.902000000
H    -4.437000000    -2.378000000    -1.835000000
H    -4.672000000    -3.419000000    -0.762000000
O    -1.893000000     3.503000000    -3.691000000
H    -1.100000000     3.076000000    -3.366000000
H    -2.475000000     3.537000000    -2.932000000
O    -2.029000000    -4.309000000     6.962000000
H    -1.474000000    -4.093000000     6.212000000
H    -2.713000000    -3.640000000     6.955000000
O     4.208000000     2.919000000    -4.852000000
H     4.607000000     3.705000000    -5.223000000
H     3.526000000     2.677000000    -5.478000000
O     1.836000000    -1.218000000    -7.435000000
H     2.273000000    -0.965000000    -6.623000000
H     1.547000000    -2.118000000    -7.282000000
O    -4.683000000    -2.452000000    -3.423000000
H    -4.226000000    -3.076000000    -3.986000000
H    -5.516000000    -2.293000000    -3.868000000
O    -1.229000000     3.849000000     1.206000000
H    -1.317000000     3.731000000     0.260000000
H    -1.735000000     3.132000000     1.586000000
O     0.938000000     4.317000000    -6.083000000
H     0.633000000     5.164000000    -5.758000000
H     1.073000000     3.792000000    -5.294000000
O     3.579000000     2.940000000    -1.913000000
H     3.920000000     2.322000000    -1.266000000
H     4.070000000     2.747000000    -2.711000000
O    -1.958000000     1.229000000     4.630000000
H    -2.912000000     1.275000000     4.704000000
H    -1.789000000     1.252000000     3.689000000
O     6.433000000    -2.106000000     3.759000000
H     6.743000000    -2.952000000     3.436000000
H     6.079000000    -1.669000000     2.984000000
O    -1.698000000    -3.192000000     4.254000000
H    -2.554000000    -2.791000000     4.101000000
H    -1.134000000    -2.816000000     3.578000000
O     2.038000000    -4.195000000     2.540000000
H     2.313000000    -3.877000000     1.680000000
H     1.552000000    -3.463000000     2.921000000
O    -4.263000000    -1.330000000     3.186000000
H    -5.013000000    -1.366000000     3.780000000
H    -4.350000000    -0.487000000     2.741000000
O     5.591000000     1.264000000     4.769000000
H     5.579000000     2.069000000     4.252000000
H     4.670000000     1.084000000     4.955000000
O    -1.357000000    -4.015000000    -2.010000000
H    -0.810000000    -4.273000000    -1.268000000
H    -1.963000000    -3.369000000    -1.648000000
O    -2.993000000     2.612000000    -1.038000000
H    -3.713000000     3.242000000    -1.022000000
H    -3.366000000     1.832000000    -1.449000000
O     1.935000000    -5.126000000     7.233000000
H     1.586000000    -4.777000000     6.413000000
H     1.643000000    -4.506000000     7.901000000
O     1.367000000     0.514000000     7.077000000
H     0.484000000     0.197000000     6.890000000
H     1.447000000     0.455000000     8.029000000
O    -3.953000000    -3.850000000     1.984000000
H    -4.299000000    -2.961000000     1.911000000
H    -3.411000000    -3.961000000     1.203000000
O     0.835000000    -6.729000000     3.369000000
H     1.060000000    -5.856000000     3.048000000
H     1.574000000    -6.979000000     3.923000000
O    -4.321000000    -0.158000000     0.774000000
H    -4.187000000    -1.084000000     0.572000000
H    -4.793000000     0.187000000     0.016000000
O     0.225000000    -4.854000000    -0.064000000
H     1.081000000    -4.439000000    -0.171000000
H     0.425000000    -5.749000000     0.208000000
O     3.884000000    -6.209000000     3.204000000
H     3.352000000    -5.467000000     2.915000000
H     4.171000000    -6.628000000     2.393000000
O     2.544000000    -2.314000000    -5.025000000
H     2.060000000    -3.139000000    -4.984000000
H     3.383000000    -2.508000000    -4.607000000
O    -6.688000000    -0.012000000    -0.945000000
H    -7.637000000     0.085000000    -1.024000000
H    -6.362000000     0.084000000    -1.839000000
