158
-3030.31762
C    -0.405000000     1.359000000     0.284000000
H    -0.704000000     2.403000000     0.337000000
C    -0.211000000     0.833000000    -0.972000000
H    -0.328000000     1.485000000    -1.835000000
C     0.200000000    -0.529000000    -1.091000000
H     0.352000000    -1.047000000    -2.000000000
C     0.330000000    -1.304000000     0.061000000
H     0.588000000    -2.358000000    -0.004000000
C     0.035000000    -0.737000000     1.276000000
H     0.130000000    -1.366000000     2.157000000
C    -0.187000000     0.608000000     1.435000000
C    -0.352000000     1.283000000     2.820000000
O    -0.682000000     2.462000000     3.001000000
O    -0.253000000     0.641000000     3.875000000
O     1.906000000     5.206000000    -0.187000000
H     1.851000000     6.161000000    -0.230000000
H     2.844000000     5.023000000    -0.131000000
O     2.673000000    -5.049000000    -5.657000000
H     3.277000000    -5.746000000    -5.915000000
H     2.846000000    -4.913000000    -4.726000000
O    -3.001000000     1.483000000    -2.676000000
H    -3.871000000     1.214000000    -2.971000000
H    -3.075000000     2.427000000    -2.541000000
O    -1.835000000     4.873000000     4.951000000
H    -1.351000000     4.107000000     5.260000000
H    -1.710000000     4.870000000     4.002000000
O     2.736000000    -4.201000000    -2.992000000
H     2.353000000    -4.225000000    -2.114000000
H     2.400000000    -3.392000000    -3.377000000
O    -3.413000000     1.085000000     7.983000000
H    -2.577000000     1.476000000     7.732000000
H    -3.179000000     0.228000000     8.339000000
O    -4.340000000     1.953000000     0.594000000
H    -4.192000000     2.673000000    -0.018000000
H    -5.017000000     1.420000000     0.177000000
O    -3.164000000    -0.475000000    -0.637000000
H    -2.467000000    -0.141000000    -0.072000000
H    -3.048000000    -0.005000000    -1.462000000
O     3.515000000    -0.562000000    -3.013000000
H     4.337000000    -0.219000000    -3.362000000
H     3.440000000    -0.169000000    -2.144000000
O     1.712000000    -0.299000000    -4.830000000
H     2.380000000    -0.449000000    -4.160000000
H     0.887000000    -0.287000000    -4.346000000
O     2.037000000    -6.661000000    -0.535000000
H     1.130000000    -6.360000000    -0.481000000
H     1.978000000    -7.526000000    -0.941000000
O     3.550000000     5.615000000     2.224000000
H     2.642000000     5.337000000     2.104000000
H     3.485000000     6.509000000     2.559000000
O     2.781000000     1.115000000     0.381000000
H     2.612000000     1.924000000     0.863000000
H     1.977000000     0.605000000     0.479000000
O     1.677000000     3.517000000     3.738000000
H     1.342000000     4.380000000     3.981000000
H     0.908000000     2.947000000     3.762000000
O     4.186000000    -3.291000000     2.088000000
H     4.790000000    -3.244000000     1.346000000
H     4.044000000    -4.228000000     2.222000000
O    -0.389000000     2.386000000     5.952000000
H    -0.069000000     1.724000000     6.565000000
H    -0.705000000     1.883000000     5.201000000
O     2.192000000     0.407000000     4.967000000
H     1.302000000     0.488000000     4.621000000
H     2.071000000     0.165000000     5.885000000
O    -2.349000000     0.083000000     5.132000000
H    -1.646000000     0.256000000     4.504000000
H    -2.947000000     0.824000000     5.031000000
O     2.334000000     3.588000000    -3.480000000
H     1.627000000     4.108000000    -3.098000000
H     2.738000000     3.148000000    -2.731000000
O     0.294000000    -3.784000000     5.192000000
H    -0.135000000    -3.126000000     5.738000000
H     1.018000000    -3.315000000     4.776000000
O    -1.680000000    -1.304000000    -6.054000000
H    -1.540000000    -2.238000000    -5.895000000
H    -1.171000000    -0.866000000    -5.372000000
O    -2.169000000    -3.186000000    -2.011000000
H    -2.176000000    -2.344000000    -1.555000000
H    -2.791000000    -3.073000000    -2.730000000
O    -1.087000000    -6.300000000    -4.756000000
H    -0.755000000    -5.447000000    -5.035000000
H    -1.282000000    -6.760000000    -5.572000000
O     3.488000000     1.213000000    -6.472000000
H     2.945000000     0.875000000    -5.759000000
H     3.280000000     0.651000000    -7.218000000
O     0.041000000     3.056000000    -5.147000000
H     0.897000000     3.012000000    -4.722000000
H     0.227000000     2.918000000    -6.075000000
O    -1.350000000    -1.968000000     6.553000000
H    -1.764000000    -1.344000000     5.957000000
H    -1.937000000    -2.724000000     6.553000000
O    -0.950000000     7.850000000     3.110000000
H    -1.114000000     7.853000000     4.052000000
H    -0.633000000     6.966000000     2.925000000
O    -2.143000000     4.965000000    -4.304000000
H    -2.641000000     4.353000000    -4.847000000
H    -1.252000000     4.617000000    -4.307000000
O    -3.988000000    -1.940000000    -3.885000000
H    -4.025000000    -1.664000000    -4.801000000
H    -4.068000000    -1.127000000    -3.386000000
O    -0.726000000     5.068000000     2.342000000
H    -0.497000000     4.165000000     2.563000000
H    -0.974000000     5.033000000     1.418000000
O    -0.090000000     3.931000000    -1.723000000
H    -0.843000000     4.473000000    -1.490000000
H     0.553000000     4.105000000    -1.035000000
O    -0.658000000    -5.148000000    -0.351000000
H    -0.603000000    -4.664000000     0.473000000
H    -1.235000000    -4.619000000    -0.902000000
O    -0.797000000     0.536000000    -4.167000000
H    -1.265000000     0.866000000    -3.399000000
H    -0.774000000     1.279000000    -4.770000000
O     3.801000000     2.099000000    -1.837000000
H     3.417000000     1.632000000    -1.095000000
H     4.559000000     2.554000000    -1.468000000
O    -3.509000000     1.937000000     3.021000000
H    -2.619000000     2.286000000     3.061000000
H    -3.727000000     1.943000000     2.089000000
O     4.273000000     0.751000000     3.260000000
H     3.800000000     0.784000000     2.428000000
H     3.585000000     0.731000000     3.925000000
O     5.187000000    -5.039000000    -3.270000000
H     4.788000000    -5.801000000    -2.851000000
H     4.510000000    -4.363000000    -3.232000000
O     2.217000000    -2.537000000     3.777000000
H     2.431000000    -1.614000000     3.912000000
H     2.858000000    -2.840000000     3.134000000
O    -4.290000000    -1.774000000     1.541000000
H    -3.768000000    -1.391000000     0.836000000
H    -4.757000000    -2.499000000     1.126000000
O    -5.426000000     3.874000000     4.217000000
H    -4.748000000     3.204000000     4.140000000
H    -5.911000000     3.635000000     5.007000000
O     3.058000000     3.438000000     6.096000000
H     2.430000000     3.770000000     6.739000000
H     2.551000000     3.351000000     5.289000000
O    -3.747000000     4.383000000    -2.202000000
H    -4.656000000     4.658000000    -2.324000000
H    -3.288000000     4.725000000    -2.969000000
O    -0.910000000    -7.408000000     1.038000000
H    -0.880000000    -6.580000000     0.559000000
H    -1.333000000    -8.019000000     0.435000000
O     0.477000000     0.134000000     7.290000000
H     0.245000000    -0.768000000     7.511000000
H     0.574000000     0.571000000     8.136000000
O    -3.055000000    -2.964000000     3.991000000
H    -3.916000000    -2.831000000     4.387000000
H    -2.883000000    -2.152000000     3.513000000
O     0.262000000    -4.226000000     2.468000000
H     1.090000000    -3.757000000     2.365000000
H    -0.043000000    -3.986000000     3.343000000
O     2.078000000    -1.212000000    -7.380000000
H     1.758000000    -0.940000000    -6.519000000
H     1.835000000    -2.135000000    -7.446000000
O    -1.974000000     5.322000000    -0.096000000
H    -2.870000000     5.024000000     0.064000000
H    -2.018000000     6.273000000     0.004000000
