158
-3025.97546
C     0.683000000     1.116000000     0.746000000
H     1.004000000     1.983000000     1.318000000
C    -0.068000000     1.288000000    -0.417000000
H    -0.385000000     2.280000000    -0.730000000
C    -0.636000000     0.217000000    -1.013000000
H    -1.226000000     0.391000000    -1.952000000
C    -0.416000000    -1.042000000    -0.504000000
H    -0.856000000    -1.907000000    -0.993000000
C     0.418000000    -1.257000000     0.523000000
H     0.584000000    -2.256000000     0.917000000
C     0.981000000    -0.172000000     1.204000000
C     1.689000000    -0.377000000     2.549000000
O     1.608000000     0.539000000     3.392000000
O     2.213000000    -1.457000000     2.876000000
O    -5.685000000     1.072000000    -4.933000000
H    -4.867000000     0.929000000    -4.458000000
H    -6.355000000     0.659000000    -4.388000000
O     1.173000000     0.396000000     6.221000000
H     1.086000000     0.676000000     5.310000000
H     0.372000000     0.706000000     6.644000000
O     3.922000000    -1.166000000     5.055000000
H     3.922000000    -0.215000000     5.156000000
H     3.395000000    -1.324000000     4.271000000
O     1.304000000    -1.087000000    -3.745000000
H     1.806000000    -1.415000000    -4.491000000
H     1.966000000    -0.869000000    -3.089000000
O     3.277000000    -3.356000000     7.234000000
H     3.946000000    -3.990000000     6.978000000
H     3.058000000    -2.897000000     6.423000000
O    -2.235000000     0.571000000     1.831000000
H    -1.562000000     0.217000000     1.251000000
H    -2.810000000     1.073000000     1.253000000
O     2.798000000    -0.268000000    -1.367000000
H     2.253000000     0.201000000    -0.735000000
H     3.597000000     0.255000000    -1.428000000
O    -6.120000000     0.476000000    -0.710000000
H    -6.651000000     0.820000000    -1.428000000
H    -6.467000000    -0.402000000    -0.555000000
O    -0.990000000     5.852000000     0.533000000
H    -0.937000000     5.510000000     1.425000000
H    -1.354000000     5.129000000     0.021000000
O     4.561000000     2.079000000    -0.510000000
H     4.965000000     1.230000000    -0.692000000
H     4.541000000     2.521000000    -1.359000000
O     5.921000000     0.263000000     2.532000000
H     6.871000000     0.207000000     2.629000000
H     5.733000000     1.202000000     2.548000000
O     4.911000000    -2.060000000     1.800000000
H     3.971000000    -2.041000000     1.978000000
H     5.206000000    -1.166000000     1.974000000
O     2.892000000    -3.031000000    -1.716000000
H     2.074000000    -3.441000000    -1.436000000
H     2.800000000    -2.113000000    -1.461000000
O    -3.839000000     4.140000000    -5.930000000
H    -3.311000000     3.341000000    -5.946000000
H    -4.472000000     3.995000000    -5.227000000
O     2.159000000     2.715000000    -4.541000000
H     1.989000000     3.376000000    -5.212000000
H     2.468000000     1.952000000    -5.029000000
O    -0.880000000     1.506000000     7.362000000
H    -1.811000000     1.651000000     7.194000000
H    -0.488000000     2.377000000     7.305000000
O     0.429000000    -2.312000000     5.206000000
H     0.932000000    -2.273000000     4.392000000
H     0.312000000    -1.396000000     5.459000000
O     1.517000000    -5.922000000     4.554000000
H     2.145000000    -5.234000000     4.335000000
H     0.805000000    -5.464000000     5.001000000
O    -1.089000000     4.735000000     3.543000000
H    -0.279000000     4.230000000     3.615000000
H    -1.748000000     4.094000000     3.275000000
O    -1.213000000    -0.928000000    -4.732000000
H    -0.382000000    -0.931000000    -4.258000000
H    -1.522000000    -1.832000000    -4.680000000
O     5.749000000    -4.203000000     4.393000000
H     6.204000000    -3.370000000     4.514000000
H     5.793000000    -4.627000000     5.251000000
O    -1.456000000    -3.573000000    -4.509000000
H    -0.555000000    -3.729000000    -4.791000000
H    -1.990000000    -3.833000000    -5.260000000
O    -3.329000000     0.395000000    -3.684000000
H    -2.584000000     0.144000000    -4.231000000
H    -3.316000000    -0.231000000    -2.960000000
O    -2.191000000     1.962000000    -6.801000000
H    -2.761000000     1.260000000    -6.489000000
H    -1.383000000     1.519000000    -7.058000000
O    -1.484000000    -4.014000000     5.867000000
H    -0.612000000    -3.663000000     5.688000000
H    -2.083000000    -3.325000000     5.578000000
O    -3.446000000    -2.935000000    -2.366000000
H    -2.819000000    -3.030000000    -3.084000000
H    -2.989000000    -3.283000000    -1.601000000
O    -2.278000000    -4.652000000    -0.160000000
H    -2.616000000    -5.514000000    -0.405000000
H    -2.753000000    -4.428000000     0.640000000
O     6.675000000    -0.961000000     5.609000000
H     5.810000000    -1.033000000     5.207000000
H     6.497000000    -0.858000000     6.544000000
O    -0.178000000     0.158000000    -7.587000000
H    -0.437000000    -0.640000000    -7.127000000
H     0.740000000     0.014000000    -7.818000000
O    -6.016000000    -2.557000000    -3.214000000
H    -5.112000000    -2.513000000    -2.904000000
H    -5.940000000    -2.638000000    -4.164000000
O    -2.812000000     4.178000000    -0.897000000
H    -3.561000000     4.770000000    -0.965000000
H    -3.144000000     3.428000000    -0.403000000
O    -1.934000000     5.294000000    -4.138000000
H    -2.682000000     5.001000000    -4.658000000
H    -1.430000000     4.497000000    -3.973000000
O     5.524000000    -3.574000000    -0.218000000
H     4.686000000    -3.585000000    -0.679000000
H     5.328000000    -3.166000000     0.626000000
O    -2.657000000     2.518000000     3.674000000
H    -2.909000000     2.062000000     4.477000000
H    -2.511000000     1.819000000     3.037000000
O    -0.913000000    -6.876000000    -1.812000000
H    -0.534000000    -7.710000000    -1.536000000
H    -0.168000000    -6.277000000    -1.858000000
O    -3.314000000    -1.625000000     3.513000000
H    -3.138000000    -2.499000000     3.164000000
H    -2.661000000    -1.064000000     3.095000000
O     5.023000000     2.982000000     6.426000000
H     4.484000000     3.475000000     7.045000000
H     4.395000000     2.592000000     5.819000000
O     3.078000000    -3.736000000     4.088000000
H     4.015000000    -3.544000000     4.127000000
H     2.675000000    -2.910000000     3.820000000
O     0.853000000     2.968000000     4.043000000
H     1.603000000     3.127000000     4.615000000
H     1.034000000     2.118000000     3.641000000
O     3.734000000     1.919000000     4.387000000
H     4.361000000     2.152000000     3.703000000
H     3.017000000     1.491000000     3.919000000
O     0.709000000    -4.636000000    -0.811000000
H    -0.178000000    -4.277000000    -0.796000000
H     0.852000000    -4.958000000     0.079000000
O    -0.623000000     2.945000000    -3.579000000
H     0.171000000     2.652000000    -4.026000000
H    -1.032000000     2.139000000    -3.264000000
O     3.386000000     0.168000000     8.331000000
H     3.014000000     0.322000000     7.463000000
H     2.737000000    -0.377000000     8.777000000
O    -3.456000000    -4.255000000     2.212000000
H    -3.234000000    -4.703000000     3.028000000
H    -4.363000000    -4.507000000     2.040000000
O     2.266000000     6.279000000    -0.377000000
H     2.238000000     5.344000000    -0.174000000
H     3.119000000     6.408000000    -0.793000000
O    -4.028000000     1.865000000     0.324000000
H    -4.627000000     1.336000000    -0.202000000
H    -4.579000000     2.236000000     1.014000000
O     0.843000000    -4.967000000     2.112000000
H     1.114000000    -5.194000000     3.001000000
H     0.113000000    -5.557000000     1.926000000
O     5.427000000     2.957000000     2.343000000
H     5.603000000     2.977000000     1.402000000
H     5.274000000     3.872000000     2.578000000
