158
-3057.67846
C    -0.193000000    -1.415000000     0.344000000
H    -0.427000000    -2.418000000     0.692000000
C    -0.977000000    -0.342000000     0.776000000
H    -1.808000000    -0.558000000     1.443000000
C    -0.748000000     0.952000000     0.296000000
H    -1.271000000     1.865000000     0.647000000
C     0.326000000     1.151000000    -0.601000000
H     0.592000000     2.119000000    -1.017000000
C     1.195000000     0.065000000    -0.837000000
H     2.079000000     0.203000000    -1.454000000
C     0.930000000    -1.233000000    -0.436000000
C     1.779000000    -2.419000000    -0.703000000
O     2.842000000    -2.182000000    -1.267000000
O     1.324000000    -3.501000000    -0.466000000
O     3.181000000    -5.676000000    -0.232000000
H     4.010000000    -5.199000000    -0.202000000
H     2.511000000    -4.996000000    -0.158000000
O    -1.098000000     2.342000000    -3.646000000
H    -0.772000000     2.090000000    -4.510000000
H    -0.656000000     3.169000000    -3.454000000
O    -5.100000000    -2.729000000     3.288000000
H    -4.387000000    -3.248000000     3.662000000
H    -4.715000000    -2.316000000     2.515000000
O    -1.120000000     3.510000000     5.506000000
H    -1.805000000     3.278000000     6.133000000
H    -1.551000000     3.464000000     4.652000000
O     4.048000000    -0.969000000     1.142000000
H     3.646000000    -1.585000000     1.754000000
H     3.880000000    -1.345000000     0.278000000
O    -2.615000000    -3.423000000    -0.694000000
H    -1.888000000    -2.895000000    -1.025000000
H    -3.393000000    -2.894000000    -0.870000000
O     1.400000000     4.912000000     3.433000000
H     2.322000000     4.868000000     3.687000000
H     1.235000000     5.844000000     3.293000000
O    -3.559000000     4.778000000     1.383000000
H    -4.205000000     5.334000000     1.818000000
H    -4.070000000     4.254000000     0.766000000
O     6.667000000    -0.430000000     1.188000000
H     6.917000000    -0.905000000     1.981000000
H     5.710000000    -0.456000000     1.185000000
O     0.953000000    -1.478000000     4.193000000
H     0.963000000    -0.850000000     3.471000000
H     1.736000000    -1.269000000     4.702000000
O     2.351000000     3.541000000    -5.197000000
H     3.058000000     3.105000000    -4.722000000
H     1.792000000     3.907000000    -4.511000000
O    -1.189000000     3.845000000     2.635000000
H    -1.717000000     4.461000000     2.128000000
H    -0.457000000     4.369000000     2.961000000
O    -3.701000000     0.417000000    -1.344000000
H    -2.854000000     0.670000000    -0.976000000
H    -3.585000000     0.499000000    -2.290000000
O     1.545000000     0.670000000     2.271000000
H     2.217000000     0.162000000     1.816000000
H     1.150000000     1.212000000     1.588000000
O     0.755000000     4.403000000    -3.065000000
H     1.053000000     4.476000000    -2.158000000
H     0.307000000     5.231000000    -3.238000000
O     3.682000000     4.333000000    -1.293000000
H     4.021000000     3.527000000    -1.681000000
H     3.107000000     4.036000000    -0.588000000
O    -3.643000000     0.913000000    -4.010000000
H    -2.957000000     1.580000000    -4.044000000
H    -3.732000000     0.616000000    -4.916000000
O     1.187000000    -4.551000000     2.031000000
H     0.387000000    -4.980000000     2.335000000
H     0.962000000    -4.212000000     1.165000000
O    -6.790000000     0.095000000     2.339000000
H    -6.004000000    -0.362000000     2.638000000
H    -6.610000000     1.019000000     2.512000000
O     4.863000000    -3.851000000    -1.263000000
H     5.327000000    -3.730000000    -2.092000000
H     4.096000000    -3.282000000    -1.333000000
O    -5.164000000     3.315000000    -0.369000000
H    -4.990000000     4.150000000    -0.803000000
H    -5.591000000     2.781000000    -1.039000000
O    -4.042000000     5.534000000    -1.668000000
H    -3.218000000     5.803000000    -1.261000000
H    -3.778000000     5.102000000    -2.480000000
O     6.028000000    -3.377000000    -4.134000000
H     5.383000000    -2.680000000    -4.018000000
H     5.833000000    -3.744000000    -4.996000000
O     3.070000000    -2.696000000     2.942000000
H     2.420000000    -3.347000000     2.678000000
H     2.920000000    -2.574000000     3.879000000
O     3.344000000    -7.945000000     1.081000000
H     2.523000000    -8.435000000     1.045000000
H     3.203000000    -7.200000000     0.496000000
O     4.014000000     2.003000000    -3.051000000
H     3.498000000     1.197000000    -3.025000000
H     4.811000000     1.762000000    -3.524000000
O     1.914000000    -4.668000000    -3.218000000
H     1.147000000    -5.211000000    -3.035000000
H     2.089000000    -4.217000000    -2.392000000
O    -5.304000000    -1.226000000    -0.212000000
H    -4.674000000    -0.664000000    -0.663000000
H    -5.930000000    -0.617000000     0.179000000
O    -0.603000000    -5.738000000    -2.347000000
H    -0.657000000    -4.980000000    -1.766000000
H    -1.355000000    -6.278000000    -2.107000000
O     1.050000000     5.659000000    -0.396000000
H     1.398000000     4.836000000    -0.052000000
H     1.515000000     6.339000000     0.093000000
O    -2.814000000     0.312000000     5.934000000
H    -2.729000000     0.717000000     5.070000000
H    -1.953000000    -0.072000000     6.103000000
O     1.380000000     1.910000000     4.634000000
H     0.798000000     2.612000000     4.342000000
H     1.378000000     1.282000000     3.912000000
O    -1.418000000     6.047000000    -3.470000000
H    -1.151000000     6.870000000    -3.879000000
H    -1.481000000     6.252000000    -2.537000000
O     2.024000000     0.087000000    -4.643000000
H     1.232000000     0.411000000    -5.072000000
H     2.724000000     0.649000000    -4.975000000
O    -2.557000000     1.590000000     3.618000000
H    -3.353000000     2.099000000     3.466000000
H    -1.887000000     2.031000000     3.096000000
O     3.282000000    -5.895000000     3.535000000
H     2.861000000    -6.754000000     3.579000000
H     2.711000000    -5.378000000     2.967000000
O     7.121000000    -5.030000000     0.176000000
H     6.872000000    -5.342000000     1.046000000
H     6.336000000    -4.597000000    -0.157000000
O    -1.571000000     6.658000000    -0.928000000
H    -0.752000000     6.217000000    -0.701000000
H    -1.778000000     7.191000000    -0.161000000
O     0.611000000    -2.551000000    -4.240000000
H     1.140000000    -3.303000000    -3.974000000
H     1.233000000    -1.825000000    -4.288000000
O     4.145000000    -1.473000000    -3.647000000
H     3.460000000    -0.916000000    -4.018000000
H     3.780000000    -1.783000000    -2.819000000
O    -2.145000000    -2.026000000    -3.260000000
H    -2.176000000    -1.088000000    -3.449000000
H    -1.294000000    -2.310000000    -3.592000000
O    -5.715000000     2.365000000     3.282000000
H    -6.175000000     2.768000000     4.019000000
H    -5.590000000     3.080000000     2.658000000
O    -0.993000000    -3.590000000     4.417000000
H    -1.433000000    -3.528000000     3.569000000
H    -0.320000000    -2.910000000     4.388000000
O     4.204000000     2.038000000     1.392000000
H     4.079000000     1.104000000     1.562000000
H     4.916000000     2.295000000     1.977000000
O    -0.097000000     0.089000000     6.084000000
H     0.497000000     0.834000000     5.994000000
H     0.138000000    -0.494000000     5.362000000
O    -2.150000000    -4.332000000     1.961000000
H    -2.537000000    -3.913000000     1.192000000
H    -2.185000000    -5.269000000     1.766000000
O     1.928000000     3.489000000     0.997000000
H     1.581000000     3.648000000     1.875000000
H     2.743000000     3.011000000     1.145000000
O     3.898000000    -6.053000000    -4.322000000
H     3.229000000    -5.522000000    -3.890000000
H     4.198000000    -6.658000000    -3.644000000
