158
-3000.64726
C    -0.465000000    -0.689000000     1.196000000
H    -0.870000000    -1.028000000     2.146000000
C    -0.208000000     0.660000000     1.121000000
H    -0.286000000     1.413000000     1.901000000
C     0.112000000     1.190000000    -0.093000000
H     0.255000000     2.218000000    -0.280000000
C     0.456000000     0.375000000    -1.176000000
H     0.699000000     0.817000000    -2.138000000
C     0.240000000    -1.030000000    -1.093000000
H     0.625000000    -1.688000000    -1.868000000
C    -0.185000000    -1.580000000     0.139000000
C    -0.365000000    -3.040000000     0.268000000
O    -1.034000000    -3.363000000     1.221000000
O     0.074000000    -3.870000000    -0.567000000
O    -1.083000000    -3.027000000     5.639000000
H    -1.034000000    -3.782000000     6.226000000
H    -0.297000000    -2.519000000     5.837000000
O    -2.283000000     5.082000000    -0.861000000
H    -2.667000000     5.285000000    -1.714000000
H    -2.283000000     5.917000000    -0.393000000
O     3.904000000     0.450000000     3.514000000
H     3.191000000    -0.033000000     3.096000000
H     3.468000000     1.024000000     4.143000000
O     0.297000000    -4.166000000     3.345000000
H    -0.369000000    -3.999000000     4.012000000
H    -0.163000000    -4.049000000     2.514000000
O    -2.269000000    -1.589000000    -3.349000000
H    -2.012000000    -2.484000000    -3.126000000
H    -1.807000000    -1.404000000    -4.166000000
O     1.832000000    -6.709000000     2.899000000
H     1.354000000    -5.880000000     2.902000000
H     1.808000000    -6.997000000     1.986000000
O    -4.626000000     0.365000000     3.736000000
H    -5.368000000    -0.223000000     3.877000000
H    -4.611000000     0.923000000     4.514000000
O    -1.306000000    -3.936000000    -2.887000000
H    -0.625000000    -4.327000000    -3.434000000
H    -0.966000000    -4.005000000    -1.995000000
O     2.271000000    -2.372000000     3.646000000
H     2.099000000    -2.032000000     4.525000000
H     1.617000000    -3.060000000     3.524000000
O    -3.567000000    -3.783000000     0.845000000
H    -4.081000000    -4.066000000     1.601000000
H    -2.669000000    -3.729000000     1.171000000
O    -5.601000000    -2.336000000     4.033000000
H    -5.813000000    -3.045000000     4.640000000
H    -4.646000000    -2.349000000     3.972000000
O     1.238000000    -2.662000000    -4.715000000
H     1.890000000    -2.068000000    -5.087000000
H     1.591000000    -2.898000000    -3.857000000
O     0.632000000     3.094000000    -4.301000000
H     0.715000000     3.410000000    -5.200000000
H     0.652000000     2.140000000    -4.379000000
O     0.635000000     4.483000000    -1.840000000
H     0.417000000     4.313000000    -2.756000000
H    -0.193000000     4.755000000    -1.443000000
O    -1.997000000     3.843000000     1.931000000
H    -2.399000000     2.978000000     1.848000000
H    -2.343000000     4.341000000     1.191000000
O     2.538000000    -4.111000000    -1.683000000
H     2.403000000    -4.888000000    -2.226000000
H     1.677000000    -3.929000000    -1.307000000
O    -2.535000000     4.179000000    -3.740000000
H    -2.996000000     3.884000000    -4.526000000
H    -2.292000000     3.371000000    -3.288000000
O    -5.349000000     5.596000000     0.149000000
H    -4.612000000     5.056000000    -0.134000000
H    -5.205000000     5.728000000     1.086000000
O    -2.218000000     0.470000000     5.855000000
H    -2.434000000     0.881000000     5.018000000
H    -1.299000000     0.696000000     6.002000000
O     5.395000000     4.829000000    -0.656000000
H     5.001000000     4.394000000    -1.411000000
H     4.726000000     5.447000000    -0.359000000
O    -3.448000000    -5.290000000    -3.976000000
H    -2.609000000    -5.102000000    -3.556000000
H    -4.025000000    -4.583000000    -3.688000000
O    -4.856000000     2.605000000    -1.675000000
H    -5.447000000     2.451000000    -0.939000000
H    -4.027000000     2.210000000    -1.404000000
O    -3.268000000     1.499000000     1.428000000
H    -3.982000000     0.977000000     1.792000000
H    -2.559000000     0.871000000     1.290000000
O    -3.472000000    -5.142000000     5.374000000
H    -3.336000000    -4.343000000     4.864000000
H    -2.620000000    -5.322000000     5.770000000
O     2.603000000     2.525000000     5.373000000
H     3.334000000     3.141000000     5.417000000
H     1.974000000     2.854000000     6.015000000
O    -2.725000000    -0.108000000    -1.014000000
H    -1.784000000    -0.061000000    -0.845000000
H    -2.811000000    -0.765000000    -1.706000000
O     0.461000000    -6.334000000     0.492000000
H     0.401000000    -5.435000000     0.170000000
H     0.492000000    -6.871000000    -0.300000000
O     3.412000000     4.233000000    -2.516000000
H     3.656000000     3.420000000    -2.959000000
H     2.585000000     4.029000000    -2.080000000
O     0.876000000     3.462000000     3.266000000
H     0.500000000     2.904000000     2.585000000
H     0.781000000     2.953000000     4.072000000
O     2.175000000     7.238000000    -1.484000000
H     1.810000000     6.428000000    -1.840000000
H     2.242000000     7.076000000    -0.543000000
O    -2.181000000    -6.450000000     1.272000000
H    -1.252000000    -6.241000000     1.171000000
H    -2.630000000    -5.828000000     0.699000000
O    -5.042000000    -2.098000000    -0.856000000
H    -4.377000000    -2.680000000    -0.488000000
H    -4.910000000    -1.266000000    -0.402000000
O     3.413000000     1.727000000    -3.912000000
H     2.792000000     1.108000000    -4.295000000
H     4.015000000     1.936000000    -4.626000000
O    -2.799000000    -3.068000000     3.652000000
H    -2.151000000    -3.067000000     4.357000000
H    -2.300000000    -2.840000000     2.868000000
O    -1.009000000    -1.238000000    -5.652000000
H    -1.332000000    -0.433000000    -6.057000000
H    -0.241000000    -1.476000000    -6.170000000
O     5.440000000     0.681000000     1.212000000
H     4.837000000     0.584000000     0.476000000
H     4.889000000     0.981000000     1.935000000
O    -1.778000000     3.916000000     4.660000000
H    -1.568000000     3.920000000     3.726000000
H    -2.711000000     4.127000000     4.696000000
O    -0.094000000    -7.769000000    -1.795000000
H    -0.366000000    -7.476000000    -2.665000000
H     0.842000000    -7.947000000    -1.885000000
O    -0.981000000    -4.656000000    -6.043000000
H    -1.870000000    -4.365000000    -6.245000000
H    -0.551000000    -3.881000000    -5.682000000
O     4.818000000    -3.734000000    -0.316000000
H     4.497000000    -3.081000000     0.305000000
H     4.084000000    -3.880000000    -0.912000000
O     3.612000000     6.545000000     0.841000000
H     2.841000000     6.555000000     1.408000000
H     4.316000000     6.896000000     1.386000000
O     3.554000000     0.977000000    -1.210000000
H     2.645000000     0.681000000    -1.162000000
H     3.621000000     1.410000000    -2.061000000
O     1.157000000     0.410000000    -5.059000000
H     0.935000000     0.501000000    -5.985000000
H     0.403000000    -0.038000000    -4.675000000
O     3.971000000    -2.183000000     1.601000000
H     4.504000000    -1.504000000     2.016000000
H     3.299000000    -2.390000000     2.251000000
O     1.741000000     6.348000000     3.063000000
H     1.415000000     6.721000000     3.882000000
H     1.406000000     5.451000000     3.058000000
O     0.367000000     0.826000000     5.147000000
H     0.437000000    -0.110000000     5.333000000
H     1.266000000     1.149000000     5.206000000
O    -3.780000000     0.549000000    -3.860000000
H    -3.175000000    -0.072000000    -3.455000000
H    -4.174000000     1.015000000    -3.122000000
O     2.001000000     6.199000000    -4.589000000
H     2.445000000     5.497000000    -4.113000000
H     2.669000000     6.876000000    -4.695000000
