158
-3028.09120
C     0.073000000    -0.677000000     1.350000000
H     0.086000000    -1.118000000     2.344000000
C     0.863000000     0.358000000     0.921000000
H     1.689000000     0.631000000     1.573000000
C     0.626000000     1.040000000    -0.299000000
H     1.246000000     1.861000000    -0.610000000
C    -0.308000000     0.508000000    -1.179000000
H    -0.448000000     0.962000000    -2.157000000
C    -0.947000000    -0.664000000    -0.850000000
H    -1.642000000    -1.117000000    -1.553000000
C    -0.871000000    -1.227000000     0.421000000
C    -1.630000000    -2.513000000     0.720000000
O    -1.683000000    -2.882000000     1.879000000
O    -2.406000000    -2.989000000    -0.023000000
O    -4.082000000    -4.170000000     4.887000000
H    -3.789000000    -4.482000000     5.743000000
H    -3.486000000    -4.586000000     4.264000000
O     1.790000000     2.392000000     5.084000000
H     2.098000000     1.647000000     5.600000000
H     0.847000000     2.251000000     4.998000000
O     0.559000000    -3.506000000     3.566000000
H     1.136000000    -3.849000000     2.883000000
H    -0.224000000    -3.219000000     3.096000000
O    -3.960000000    -3.252000000    -3.379000000
H    -4.328000000    -4.117000000    -3.558000000
H    -4.422000000    -2.952000000    -2.596000000
O    -4.546000000     2.242000000    -5.387000000
H    -4.825000000     1.342000000    -5.217000000
H    -3.862000000     2.407000000    -4.737000000
O    -0.654000000    -5.953000000     5.232000000
H    -1.125000000    -5.720000000     4.432000000
H    -0.861000000    -5.249000000     5.846000000
O    -3.529000000    -0.233000000     2.363000000
H    -3.991000000    -0.796000000     1.741000000
H    -3.422000000    -0.776000000     3.144000000
O    -1.133000000    -4.657000000    -2.117000000
H    -0.289000000    -4.207000000    -2.144000000
H    -1.630000000    -4.194000000    -1.442000000
O    -2.938000000     5.088000000    -1.730000000
H    -3.000000000     4.317000000    -1.166000000
H    -2.972000000     4.736000000    -2.620000000
O     2.899000000    -0.038000000     5.868000000
H     2.953000000     0.001000000     6.823000000
H     3.728000000     0.333000000     5.566000000
O     0.374000000    -1.143000000     4.959000000
H     1.184000000    -1.054000000     5.461000000
H     0.358000000    -2.062000000     4.691000000
O    -4.960000000    -2.780000000    -0.435000000
H    -5.037000000    -3.274000000     0.381000000
H    -4.018000000    -2.658000000    -0.553000000
O    -2.377000000     2.677000000    -3.667000000
H    -1.480000000     2.779000000    -3.983000000
H    -2.385000000     1.820000000    -3.240000000
O    -0.461000000     5.634000000    -0.259000000
H     0.236000000     5.044000000    -0.545000000
H    -1.195000000     5.439000000    -0.841000000
O     7.139000000     1.710000000    -1.308000000
H     6.279000000     1.615000000    -1.717000000
H     7.715000000     1.984000000    -2.023000000
O     2.450000000    -4.548000000     5.052000000
H     1.703000000    -4.490000000     4.456000000
H     2.109000000    -4.248000000     5.894000000
O    -2.865000000    -1.643000000     4.667000000
H    -1.919000000    -1.747000000     4.773000000
H    -3.195000000    -2.537000000     4.577000000
O     4.297000000     4.710000000    -0.575000000
H     4.809000000     4.623000000     0.228000000
H     4.715000000     5.429000000    -1.049000000
O    -2.356000000    -5.335000000     3.032000000
H    -1.906000000    -4.597000000     2.620000000
H    -2.631000000    -5.887000000     2.300000000
O     0.077000000     2.766000000    -4.453000000
H     0.371000000     2.138000000    -5.113000000
H     0.839000000     3.325000000    -4.298000000
O    -1.863000000     1.912000000     1.814000000
H    -2.223000000     1.143000000     2.256000000
H    -1.003000000     1.629000000     1.503000000
O    -3.480000000     2.843000000    -0.406000000
H    -3.714000000     2.266000000    -1.132000000
H    -3.086000000     2.262000000     0.245000000
O    -0.615000000    -6.492000000     0.330000000
H    -0.099000000    -6.428000000    -0.474000000
H    -1.461000000    -6.106000000     0.103000000
O     2.341000000     4.563000000    -4.273000000
H     1.906000000     4.828000000    -5.083000000
H     3.240000000     4.368000000    -4.537000000
O     0.493000000    -2.407000000    -4.411000000
H     1.211000000    -1.792000000    -4.258000000
H     0.543000000    -3.022000000    -3.679000000
O    -0.669000000     1.318000000     5.738000000
H    -0.729000000     1.309000000     6.693000000
H    -0.385000000     0.433000000     5.508000000
O     1.289000000     7.617000000    -2.014000000
H     0.895000000     6.806000000    -1.692000000
H     1.363000000     8.171000000    -1.237000000
O     2.095000000     0.121000000    -4.320000000
H     1.928000000     1.050000000    -4.484000000
H     2.625000000    -0.162000000    -5.065000000
O    -3.217000000    -5.508000000     0.186000000
H    -2.884000000    -4.617000000     0.083000000
H    -3.675000000    -5.689000000    -0.635000000
O    -5.856000000    -0.129000000    -0.588000000
H    -6.549000000     0.089000000     0.036000000
H    -5.662000000    -1.051000000    -0.419000000
O     3.279000000    -0.333000000    -2.022000000
H     2.733000000    -0.379000000    -2.807000000
H     3.591000000     0.572000000    -2.000000000
O     1.461000000     4.216000000    -1.708000000
H     2.372000000     4.459000000    -1.541000000
H     1.327000000     4.410000000    -2.635000000
O     1.372000000    -3.431000000    -2.003000000
H     1.977000000    -4.170000000    -2.070000000
H     1.603000000    -3.006000000    -1.177000000
O     4.003000000     5.477000000     2.144000000
H     3.621000000     6.351000000     2.218000000
H     4.913000000     5.588000000     2.418000000
O    -4.419000000    -3.046000000     2.210000000
H    -4.679000000    -3.350000000     3.079000000
H    -3.476000000    -2.897000000     2.280000000
O    -6.808000000    -4.316000000    -1.709000000
H    -7.460000000    -3.776000000    -2.155000000
H    -6.142000000    -3.694000000    -1.414000000
O    -3.073000000    -8.049000000     1.210000000
H    -3.100000000    -7.200000000     0.767000000
H    -2.322000000    -8.497000000     0.822000000
O    -1.338000000    -0.264000000    -4.519000000
H    -1.126000000    -1.150000000    -4.812000000
H    -0.584000000     0.001000000    -3.993000000
O    -2.367000000    -3.142000000    -5.567000000
H    -2.968000000    -3.050000000    -4.828000000
H    -1.920000000    -3.973000000    -5.410000000
O     2.707000000    -4.365000000     1.255000000
H     2.745000000    -3.523000000     0.802000000
H     3.453000000    -4.856000000     0.910000000
O     1.148000000     6.635000000     3.082000000
H     0.246000000     6.572000000     3.397000000
H     1.118000000     6.270000000     2.197000000
O     2.490000000    -1.995000000    -0.019000000
H     1.782000000    -1.530000000     0.427000000
H     2.704000000    -1.442000000    -0.770000000
O    -4.036000000    -0.425000000    -4.554000000
H    -3.115000000    -0.217000000    -4.712000000
H    -4.260000000    -1.053000000    -5.241000000
O     4.670000000    -0.798000000     2.094000000
H     4.470000000    -1.681000000     2.404000000
H     4.047000000    -0.647000000     1.383000000
O     4.541000000     1.983000000    -2.265000000
H     3.971000000     2.543000000    -1.738000000
H     4.630000000     2.448000000    -3.097000000
O     4.198000000     3.875000000     4.317000000
H     3.526000000     3.230000000     4.536000000
H     3.901000000     4.259000000     3.492000000
O    -2.626000000     2.627000000     4.561000000
H    -2.752000000     2.708000000     3.616000000
H    -1.906000000     2.004000000     4.654000000
O    -3.990000000     0.949000000    -2.094000000
H    -4.859000000     0.758000000    -1.742000000
H    -3.865000000     0.302000000    -2.789000000
