158
-3034.07338
C    -0.625000000    -1.114000000     0.715000000
H    -1.347000000    -1.692000000     1.287000000
C    -0.286000000     0.072000000     1.304000000
H    -0.706000000     0.273000000     2.286000000
C     0.360000000     1.046000000     0.549000000
H     0.621000000     2.062000000     0.887000000
C     0.706000000     0.795000000    -0.848000000
H     1.092000000     1.620000000    -1.442000000
C     0.479000000    -0.495000000    -1.331000000
H     0.776000000    -0.689000000    -2.359000000
C    -0.287000000    -1.466000000    -0.617000000
C    -0.506000000    -2.849000000    -1.186000000
O    -1.442000000    -3.473000000    -0.676000000
O     0.040000000    -3.213000000    -2.180000000
O     0.361000000     6.673000000    -1.693000000
H     1.248000000     6.912000000    -1.423000000
H     0.443000000     5.776000000    -2.017000000
O    -1.922000000     7.339000000     3.491000000
H    -1.903000000     8.252000000     3.205000000
H    -1.580000000     6.846000000     2.745000000
O     0.572000000     1.391000000     4.905000000
H    -0.106000000     0.750000000     5.121000000
H     1.211000000     0.899000000     4.390000000
O     2.362000000    -7.033000000    -0.858000000
H     1.435000000    -7.051000000    -1.095000000
H     2.611000000    -6.111000000    -0.933000000
O    -0.141000000    -6.118000000    -1.521000000
H    -0.880000000    -6.405000000    -2.057000000
H    -0.346000000    -5.210000000    -1.295000000
O    -3.661000000    -0.766000000     3.564000000
H    -4.320000000    -0.125000000     3.828000000
H    -4.155000000    -1.438000000     3.094000000
O    -5.340000000    -2.279000000     2.026000000
H    -5.968000000    -2.874000000     2.434000000
H    -5.673000000    -2.150000000     1.138000000
O    -0.182000000    -6.556000000     1.491000000
H     0.162000000    -7.420000000     1.717000000
H    -1.089000000    -6.719000000     1.230000000
O    -3.444000000    -0.431000000    -1.810000000
H    -4.131000000    -0.506000000    -2.473000000
H    -3.026000000    -1.292000000    -1.800000000
O    -3.788000000     3.647000000     1.684000000
H    -3.622000000     2.757000000     1.376000000
H    -2.966000000     3.917000000     2.092000000
O     2.210000000    -1.155000000     1.417000000
H     2.280000000    -0.778000000     2.294000000
H     1.568000000    -0.604000000     0.970000000
O    -4.487000000     6.295000000     1.099000000
H    -4.031000000     5.469000000     1.263000000
H    -4.917000000     6.500000000     1.929000000
O     3.508000000    -3.444000000     0.892000000
H     3.124000000    -2.605000000     1.147000000
H     3.299000000    -3.530000000    -0.038000000
O    -2.469000000    -3.027000000    -3.398000000
H    -2.884000000    -3.612000000    -2.764000000
H    -1.547000000    -3.012000000    -3.143000000
O    -2.952000000    -3.547000000     1.518000000
H    -3.670000000    -2.941000000     1.334000000
H    -2.427000000    -3.546000000     0.718000000
O     1.187000000    -4.366000000     2.539000000
H     1.828000000    -4.143000000     1.863000000
H     0.711000000    -5.115000000     2.179000000
O     2.437000000    -6.244000000    -4.291000000
H     2.209000000    -7.129000000    -4.007000000
H     2.403000000    -5.719000000    -3.491000000
O     0.886000000     3.766000000     6.264000000
H     0.753000000     2.952000000     5.778000000
H     0.017000000     3.989000000     6.599000000
O     1.780000000     7.415000000     2.368000000
H     2.046000000     7.168000000     3.254000000
H     1.077000000     6.804000000     2.150000000
O     3.918000000     4.864000000     2.850000000
H     4.279000000     5.640000000     2.419000000
H     4.673000000     4.450000000     3.268000000
O     0.038000000     4.086000000    -2.875000000
H    -0.166000000     4.199000000    -3.803000000
H    -0.786000000     3.800000000    -2.482000000
O     3.653000000     0.079000000    -3.444000000
H     4.476000000     0.280000000    -3.890000000
H     3.148000000     0.891000000    -3.496000000
O     1.962000000     5.740000000     4.662000000
H     2.639000000     5.265000000     4.180000000
H     1.446000000     5.055000000     5.087000000
O    -3.022000000    -5.882000000     2.763000000
H    -2.828000000    -5.101000000     2.244000000
H    -3.544000000    -5.558000000     3.497000000
O    -3.546000000    -7.247000000     0.189000000
H    -3.308000000    -7.391000000     1.105000000
H    -4.467000000    -7.502000000     0.138000000
O    -0.722000000    -3.805000000     4.988000000
H    -0.238000000    -3.822000000     4.162000000
H    -0.210000000    -4.360000000     5.577000000
O    -1.803000000    -0.518000000    -4.992000000
H    -1.616000000    -1.198000000    -5.639000000
H    -2.201000000    -0.987000000    -4.259000000
O    -2.829000000     1.498000000    -0.213000000
H    -3.184000000     0.929000000    -0.897000000
H    -2.369000000     0.902000000     0.379000000
O     2.767000000     0.288000000     3.467000000
H     3.518000000    -0.168000000     3.847000000
H     3.142000000     1.066000000     3.054000000
O    -1.556000000     4.245000000     3.028000000
H    -1.585000000     4.539000000     3.939000000
H    -0.677000000     3.883000000     2.921000000
O    -2.409000000     3.840000000    -1.728000000
H    -2.610000000     3.294000000    -2.488000000
H    -2.376000000     3.226000000    -0.994000000
O     4.267000000     4.720000000    -0.985000000
H     3.925000000     4.277000000    -1.761000000
H     5.210000000     4.553000000    -1.011000000
O    -1.196000000    -0.904000000     4.804000000
H    -0.842000000    -1.784000000     4.672000000
H    -2.013000000    -0.898000000     4.305000000
O    -2.217000000     6.360000000    -2.314000000
H    -2.278000000     5.430000000    -2.098000000
H    -1.293000000     6.575000000    -2.186000000
O    -2.253000000     2.124000000    -4.198000000
H    -1.728000000     2.740000000    -4.709000000
H    -2.182000000     1.297000000    -4.673000000
O    -3.388000000    -4.962000000    -1.445000000
H    -2.810000000    -4.289000000    -1.085000000
H    -3.352000000    -5.674000000    -0.806000000
O     2.564000000    -4.155000000    -1.461000000
H     3.114000000    -3.712000000    -2.108000000
H     1.671000000    -4.043000000    -1.790000000
O     1.105000000    -3.639000000    -4.427000000
H     0.486000000    -4.254000000    -4.821000000
H     0.757000000    -3.477000000    -3.550000000
O     4.514000000    -2.365000000    -2.784000000
H     5.298000000    -1.842000000    -2.616000000
H     3.855000000    -1.726000000    -3.057000000
O     4.816000000    -0.275000000     1.010000000
H     3.916000000    -0.489000000     1.256000000
H     4.728000000     0.423000000     0.361000000
O     3.147000000     3.056000000    -3.255000000
H     2.261000000     3.418000000    -3.241000000
H     3.504000000     3.326000000    -4.101000000
O     2.500000000    -1.426000000    -6.239000000
H     2.472000000    -2.004000000    -7.001000000
H     2.020000000    -1.900000000    -5.560000000
O    -1.361000000    -5.403000000    -4.730000000
H    -1.870000000    -4.630000000    -4.484000000
H    -1.945000000    -5.902000000    -5.302000000
O    -2.829000000     1.391000000     6.112000000
H    -3.367000000     1.728000000     5.395000000
H    -2.342000000     0.664000000     5.724000000
O     2.635000000     6.757000000    -0.281000000
H     2.645000000     6.919000000     0.662000000
H     3.271000000     6.053000000    -0.410000000
O     4.251000000     1.666000000    -1.177000000
H     3.928000000     2.219000000    -1.889000000
H     3.675000000     0.902000000    -1.187000000
O     0.396000000    -6.497000000    -6.345000000
H     0.056000000    -5.981000000    -5.614000000
H     1.334000000    -6.575000000    -6.167000000
O     3.623000000     2.393000000     2.018000000
H     3.999000000     2.486000000     1.143000000
H     3.503000000     3.292000000     2.324000000
