158
-3033.07579
C    -0.266000000    -1.360000000     0.555000000
H    -0.505000000    -2.244000000     1.140000000
C     0.387000000    -0.326000000     1.229000000
H     0.604000000    -0.390000000     2.292000000
C     0.662000000     0.856000000     0.543000000
H     1.231000000     1.600000000     1.094000000
C     0.206000000     1.044000000    -0.745000000
H     0.443000000     2.004000000    -1.196000000
C    -0.512000000     0.026000000    -1.430000000
H    -0.938000000     0.188000000    -2.416000000
C    -0.732000000    -1.195000000    -0.763000000
C    -1.607000000    -2.237000000    -1.385000000
O    -2.008000000    -3.231000000    -0.841000000
O    -1.988000000    -1.956000000    -2.527000000
O    -3.478000000    -5.308000000     3.573000000
H    -2.893000000    -5.996000000     3.255000000
H    -3.327000000    -4.573000000     2.979000000
O     1.324000000     5.971000000    -2.858000000
H     1.763000000     5.237000000    -2.428000000
H     1.073000000     5.630000000    -3.717000000
O    -0.426000000     5.965000000     2.839000000
H     0.413000000     5.506000000     2.855000000
H    -1.026000000     5.354000000     2.411000000
O    -0.570000000     1.454000000     4.858000000
H    -1.083000000     1.204000000     4.089000000
H     0.333000000     1.488000000     4.542000000
O     1.393000000    -7.269000000    -1.392000000
H     1.900000000    -6.494000000    -1.631000000
H     0.482000000    -7.016000000    -1.543000000
O    -1.155000000    -5.819000000    -1.847000000
H    -1.365000000    -5.721000000    -2.776000000
H    -1.455000000    -5.002000000    -1.447000000
O    -5.508000000    -2.409000000     0.755000000
H    -6.321000000    -2.912000000     0.801000000
H    -5.476000000    -2.088000000    -0.147000000
O    -0.230000000    -6.565000000     0.921000000
H     0.382000000    -7.138000000     0.460000000
H    -0.939000000    -6.419000000     0.294000000
O    -3.866000000     0.033000000    -1.809000000
H    -4.656000000    -0.390000000    -1.472000000
H    -3.449000000    -0.636000000    -2.352000000
O    -2.003000000     3.558000000     2.354000000
H    -2.156000000     2.766000000     1.840000000
H    -2.630000000     3.500000000     3.076000000
O     3.676000000     1.179000000     0.780000000
H     3.418000000     2.055000000     1.067000000
H     2.857000000     0.682000000     0.763000000
O    -3.430000000     5.912000000     1.201000000
H    -2.972000000     5.111000000     1.455000000
H    -4.258000000     5.608000000     0.830000000
O     2.654000000    -2.546000000     0.114000000
H     1.900000000    -1.958000000     0.067000000
H     3.218000000    -2.272000000    -0.609000000
O    -3.645000000    -3.191000000    -4.100000000
H    -4.171000000    -3.592000000    -3.409000000
H    -2.966000000    -2.704000000    -3.633000000
O    -3.103000000    -3.296000000     1.793000000
H    -3.938000000    -2.953000000     1.474000000
H    -2.506000000    -3.203000000     1.051000000
O     1.598000000    -4.615000000     1.771000000
H     1.857000000    -3.915000000     1.170000000
H     0.823000000    -5.003000000     1.366000000
O     5.376000000     4.479000000    -0.315000000
H     5.039000000     5.138000000     0.292000000
H     6.323000000     4.618000000    -0.319000000
O     2.772000000     5.913000000     3.353000000
H     3.100000000     6.811000000     3.401000000
H     3.169000000     5.472000000     4.104000000
O     6.827000000     2.877000000     3.491000000
H     6.816000000     3.442000000     4.263000000
H     5.978000000     3.023000000     3.074000000
O     4.931000000     1.288000000    -4.078000000
H     5.367000000     1.677000000    -4.836000000
H     4.040000000     1.635000000    -4.110000000
O    -7.097000000    -4.292000000    -2.704000000
H    -6.256000000    -4.292000000    -2.248000000
H    -6.915000000    -3.870000000    -3.544000000
O     3.402000000     3.949000000     5.454000000
H     2.953000000     3.294000000     4.920000000
H     2.730000000     4.271000000     6.055000000
O    -2.037000000    -1.717000000     5.224000000
H    -1.775000000    -0.907000000     4.786000000
H    -1.577000000    -2.407000000     4.747000000
O     6.094000000    -0.032000000     0.318000000
H     6.528000000     0.239000000    -0.491000000
H     5.213000000     0.336000000     0.252000000
O    -0.264000000    -3.618000000     4.478000000
H     0.267000000    -3.812000000     3.706000000
H    -0.854000000    -4.367000000     4.559000000
O    -4.590000000    -1.003000000    -5.528000000
H    -4.347000000    -0.894000000    -6.448000000
H    -3.902000000    -1.560000000    -5.163000000
O    -2.359000000     1.890000000     0.256000000
H    -2.528000000     2.161000000    -0.646000000
H    -1.573000000     1.346000000     0.199000000
O     2.092000000     1.754000000     4.189000000
H     2.740000000     1.064000000     4.334000000
H     2.389000000     2.198000000     3.395000000
O    -0.016000000     0.002000000     7.090000000
H    -0.759000000    -0.004000000     7.693000000
H    -0.358000000     0.403000000     6.291000000
O    -1.728000000     0.656000000    -7.057000000
H    -1.595000000    -0.286000000    -6.955000000
H    -1.554000000     0.824000000    -7.983000000
O    -2.059000000    -0.008000000     2.843000000
H    -1.826000000    -0.206000000     1.936000000
H    -3.016000000    -0.009000000     2.850000000
O     3.232000000    -4.977000000     3.878000000
H     2.821000000    -4.773000000     3.038000000
H     2.624000000    -5.584000000     4.301000000
O     4.199000000    -2.042000000     2.332000000
H     3.873000000    -2.886000000     2.018000000
H     4.228000000    -1.491000000     1.549000000
O     4.055000000     0.062000000     4.241000000
H     4.008000000    -0.700000000     3.664000000
H     4.783000000    -0.129000000     4.832000000
O    -4.333000000    -4.694000000    -1.649000000
H    -3.842000000    -4.000000000    -1.208000000
H    -4.088000000    -5.494000000    -1.184000000
O     3.009000000    -1.722000000    -2.614000000
H     3.756000000    -2.157000000    -3.025000000
H     2.258000000    -1.982000000    -3.147000000
O     0.459000000    -2.744000000    -3.751000000
H     0.368000000    -3.573000000    -4.222000000
H    -0.369000000    -2.644000000    -3.281000000
O     2.324000000     2.058000000    -4.569000000
H     1.880000000     2.646000000    -5.180000000
H     1.719000000     1.324000000    -4.462000000
O    -6.198000000    -1.406000000    -1.539000000
H    -6.593000000    -1.378000000    -2.410000000
H    -6.857000000    -1.016000000    -0.965000000
O     0.765000000    -0.155000000    -5.071000000
H    -0.065000000    -0.109000000    -5.547000000
H     0.675000000    -0.925000000    -4.509000000
O    -1.770000000    -5.311000000    -4.447000000
H    -2.291000000    -4.525000000    -4.609000000
H    -1.032000000    -5.239000000    -5.052000000
O     2.532000000    -4.889000000    -2.353000000
H     3.280000000    -4.906000000    -1.756000000
H     1.967000000    -4.196000000    -2.011000000
O     1.606000000     7.724000000     1.300000000
H     1.417000000     7.300000000     2.137000000
H     2.451000000     7.362000000     1.034000000
O    -4.596000000     2.763000000    -1.898000000
H    -4.276000000     1.893000000    -2.136000000
H    -4.929000000     2.661000000    -1.007000000
O     2.862000000     4.019000000    -1.460000000
H     3.748000000     4.373000000    -1.531000000
H     2.745000000     3.503000000    -2.258000000
O     1.433000000    -1.895000000     5.690000000
H     0.660000000    -2.268000000     5.265000000
H     1.100000000    -1.515000000     6.502000000
O    -1.045000000    -6.811000000     3.508000000
H    -0.698000000    -7.685000000     3.688000000
H    -0.670000000    -6.574000000     2.660000000
O     2.688000000     3.446000000     2.005000000
H     2.772000000     4.283000000     2.461000000
H     2.561000000     3.685000000     1.087000000
