158
-3063.83485
C     0.275000000    -0.764000000     1.204000000
H     0.427000000    -1.248000000     2.165000000
C    -0.378000000     0.468000000     1.220000000
H    -0.722000000     0.862000000     2.173000000
C    -0.690000000     1.054000000    -0.011000000
H    -1.316000000     2.012000000    -0.155000000
C    -0.238000000     0.446000000    -1.215000000
H    -0.533000000     0.827000000    -2.190000000
C     0.464000000    -0.765000000    -1.196000000
H     0.828000000    -1.322000000    -2.055000000
C     0.734000000    -1.388000000     0.032000000
C     1.545000000    -2.626000000     0.149000000
O     2.238000000    -2.755000000     1.117000000
O     1.588000000    -3.448000000    -0.745000000
O     1.061000000     5.166000000     2.420000000
H     0.638000000     5.317000000     3.265000000
H     0.825000000     5.930000000     1.894000000
O    -2.579000000     4.354000000     3.537000000
H    -2.793000000     3.426000000     3.438000000
H    -1.651000000     4.362000000     3.769000000
O    -3.971000000     2.835000000     0.096000000
H    -4.332000000     3.711000000    -0.043000000
H    -3.651000000     2.569000000    -0.766000000
O     4.012000000    -3.816000000     4.345000000
H     3.175000000    -3.796000000     3.880000000
H     4.417000000    -2.972000000     4.145000000
O     1.783000000    -5.847000000     1.063000000
H     2.274000000    -6.477000000     0.536000000
H     1.700000000    -5.077000000     0.501000000
O    -2.406000000    -1.791000000    -0.677000000
H    -2.554000000    -1.292000000    -1.480000000
H    -1.683000000    -1.339000000    -0.243000000
O     2.197000000    -1.179000000     4.414000000
H     1.461000000    -0.856000000     4.933000000
H     1.917000000    -2.044000000     4.113000000
O    -5.601000000     4.790000000     2.300000000
H    -5.050000000     5.347000000     1.750000000
H    -4.982000000     4.239000000     2.779000000
O    -2.412000000     6.660000000    -3.858000000
H    -1.646000000     6.804000000    -3.303000000
H    -2.450000000     7.435000000    -4.420000000
O    -4.011000000     1.861000000     2.799000000
H    -4.008000000     2.003000000     1.852000000
H    -4.858000000     1.451000000     2.977000000
O    -0.755000000    -4.251000000    -1.263000000
H    -1.455000000    -3.600000000    -1.233000000
H     0.034000000    -3.766000000    -1.022000000
O     4.629000000    -4.070000000     0.576000000
H     3.741000000    -3.763000000     0.761000000
H     5.182000000    -3.301000000     0.717000000
O    -0.513000000    -6.685000000    -2.862000000
H    -0.603000000    -5.814000000    -2.475000000
H     0.147000000    -6.575000000    -3.547000000
O     0.241000000    -0.452000000     5.949000000
H     0.231000000    -1.029000000     6.713000000
H    -0.207000000     0.342000000     6.243000000
O     2.500000000    -1.742000000    -4.811000000
H     2.461000000    -2.439000000    -4.156000000
H     2.313000000    -2.182000000    -5.641000000
O    -5.479000000     4.942000000    -0.561000000
H    -5.928000000     5.372000000     0.167000000
H    -6.097000000     4.996000000    -1.289000000
O     0.563000000     2.789000000     6.249000000
H     0.587000000     2.434000000     5.360000000
H     1.458000000     2.685000000     6.573000000
O    -2.378000000     6.203000000     1.400000000
H    -2.480000000     5.598000000     2.135000000
H    -2.044000000     5.659000000     0.687000000
O     2.458000000    -6.910000000     3.470000000
H     2.150000000    -6.549000000     2.638000000
H     3.396000000    -6.719000000     3.482000000
O    -3.843000000     2.840000000    -5.158000000
H    -2.926000000     2.565000000    -5.189000000
H    -4.261000000     2.361000000    -5.873000000
O    -1.335000000    -2.479000000     3.805000000
H    -2.171000000    -2.808000000     3.473000000
H    -1.465000000    -2.409000000     4.751000000
O    -1.899000000    -3.358000000    -4.779000000
H    -2.276000000    -3.989000000    -4.167000000
H    -1.870000000    -3.822000000    -5.616000000
O    -3.721000000     1.680000000    -2.317000000
H    -3.973000000     2.155000000    -3.109000000
H    -3.616000000     0.774000000    -2.605000000
O    -3.226000000    -5.834000000    -1.570000000
H    -2.386000000    -5.382000000    -1.489000000
H    -3.031000000    -6.610000000    -2.095000000
O     4.244000000     0.448000000    -1.627000000
H     4.372000000    -0.448000000    -1.937000000
H     3.656000000     0.843000000    -2.270000000
O     0.618000000     2.527000000     3.621000000
H     1.425000000     2.016000000     3.561000000
H     0.777000000     3.293000000     3.069000000
O    -6.256000000     0.924000000    -0.258000000
H    -6.130000000     0.418000000     0.545000000
H    -5.683000000     1.684000000    -0.155000000
O     0.891000000     2.694000000    -5.114000000
H     1.459000000     2.043000000    -4.702000000
H     0.674000000     3.304000000    -4.409000000
O     1.864000000    -4.432000000    -3.292000000
H     2.192000000    -5.320000000    -3.150000000
H     1.439000000    -4.199000000    -2.466000000
O     3.047000000     0.845000000    -4.007000000
H     3.997000000     0.755000000    -4.076000000
H     2.705000000    -0.004000000    -4.288000000
O     5.956000000    -6.343000000    -0.047000000
H     5.317000000    -5.632000000    -0.087000000
H     5.458000000    -7.094000000     0.276000000
O     4.815000000    -1.645000000     1.931000000
H     4.723000000    -0.698000000     1.826000000
H     3.928000000    -1.986000000     1.809000000
O     3.188000000     1.313000000     3.756000000
H     2.850000000     0.485000000     4.098000000
H     3.433000000     1.116000000     2.852000000
O    -2.696000000     2.421000000     6.967000000
H    -1.836000000     2.544000000     7.369000000
H    -2.511000000     1.983000000     6.136000000
O     1.264000000    -3.594000000     3.345000000
H     0.358000000    -3.307000000     3.229000000
H     1.603000000    -3.680000000     2.454000000
O    -0.862000000    -6.683000000     0.689000000
H    -1.073000000    -5.835000000     1.080000000
H     0.094000000    -6.701000000     0.657000000
O    -2.696000000    -0.817000000    -3.466000000
H    -1.903000000    -0.778000000    -4.000000000
H    -3.089000000    -1.662000000    -3.681000000
O    -0.794000000     5.216000000    -0.632000000
H    -0.249000000     5.802000000    -1.157000000
H    -1.524000000     4.989000000    -1.207000000
O    -0.070000000    -0.894000000    -5.147000000
H    -0.327000000    -1.772000000    -5.428000000
H     0.851000000    -0.981000000    -4.901000000
O     1.464000000     4.317000000    -2.927000000
H     2.106000000     4.941000000    -3.265000000
H     1.702000000     4.202000000    -2.008000000
O     3.193000000    -6.748000000    -2.745000000
H     2.792000000    -7.062000000    -1.934000000
H     4.105000000    -7.034000000    -2.687000000
O     4.328000000    -2.239000000    -1.910000000
H     5.152000000    -2.717000000    -2.009000000
H     3.743000000    -2.859000000    -1.475000000
O     2.111000000     4.356000000    -0.371000000
H     2.475000000     3.502000000    -0.140000000
H     1.521000000     4.569000000     0.352000000
O    -2.005000000     1.259000000     4.499000000
H    -2.575000000     1.448000000     3.755000000
H    -1.125000000     1.468000000     4.186000000
O     4.354000000     1.030000000     1.035000000
H     5.262000000     1.331000000     1.067000000
H     4.231000000     0.735000000     0.133000000
O    -3.386000000    -1.089000000     5.667000000
H    -3.187000000    -0.259000000     5.233000000
H    -2.673000000    -1.207000000     6.295000000
O    -1.390000000     1.600000000    -6.086000000
H    -0.833000000     2.277000000    -5.701000000
H    -1.015000000     0.777000000    -5.774000000
O     0.726000000    -5.272000000     5.555000000
H     1.133000000    -6.114000000     5.352000000
H     1.071000000    -4.673000000     4.893000000
