158
-3015.71054
C     0.898000000    -0.294000000     1.166000000
H     1.576000000    -0.353000000     2.013000000
C     0.499000000     0.977000000     0.791000000
H     0.646000000     1.843000000     1.431000000
C    -0.284000000     1.157000000    -0.347000000
H    -0.679000000     2.227000000    -0.617000000
C    -0.512000000     0.057000000    -1.181000000
H    -1.258000000     0.179000000    -1.961000000
C    -0.084000000    -1.195000000    -0.883000000
H    -0.366000000    -2.033000000    -1.515000000
C     0.553000000    -1.427000000     0.323000000
C     0.689000000    -2.867000000     0.797000000
O     0.220000000    -3.205000000     1.858000000
O     1.276000000    -3.695000000     0.169000000
O     2.526000000     5.023000000     2.522000000
H     2.762000000     5.491000000     1.720000000
H     1.594000000     5.206000000     2.640000000
O    -5.262000000     2.686000000    -0.445000000
H    -5.269000000     2.991000000    -1.352000000
H    -5.900000000     3.244000000     0.000000000
O    -2.285000000     2.908000000     3.756000000
H    -2.267000000     2.612000000     2.846000000
H    -2.472000000     2.117000000     4.261000000
O     4.391000000    -1.937000000     1.703000000
H     3.816000000    -1.321000000     1.248000000
H     5.259000000    -1.771000000     1.334000000
O    -2.604000000    -2.817000000    -0.021000000
H    -2.152000000    -3.523000000     0.442000000
H    -2.338000000    -2.021000000     0.438000000
O    -3.425000000    -5.403000000     2.318000000
H    -2.928000000    -5.489000000     1.505000000
H    -3.488000000    -6.296000000     2.657000000
O    -1.261000000    -2.021000000     3.563000000
H    -1.746000000    -1.463000000     2.955000000
H    -0.678000000    -2.534000000     3.004000000
O    -2.954000000     5.832000000     4.410000000
H    -3.667000000     5.404000000     4.885000000
H    -2.720000000     5.211000000     3.721000000
O     0.682000000     6.662000000    -0.318000000
H     0.090000000     5.952000000    -0.565000000
H     1.486000000     6.484000000    -0.807000000
O    -3.552000000    -6.089000000    -2.146000000
H    -3.786000000    -6.575000000    -1.355000000
H    -2.835000000    -5.516000000    -1.872000000
O    -2.557000000    -0.175000000     1.310000000
H    -3.066000000     0.575000000     1.000000000
H    -1.651000000     0.048000000     1.098000000
O    -0.160000000     0.632000000     5.648000000
H     0.497000000     0.623000000     4.952000000
H     0.340000000     0.800000000     6.447000000
O     3.427000000    -4.251000000    -1.120000000
H     2.707000000    -4.067000000    -0.516000000
H     3.341000000    -5.183000000    -1.319000000
O    -3.271000000    -2.812000000    -2.626000000
H    -4.188000000    -2.546000000    -2.686000000
H    -3.090000000    -2.838000000    -1.686000000
O     5.721000000    -2.712000000    -1.803000000
H     4.982000000    -3.266000000    -1.551000000
H     5.881000000    -2.932000000    -2.721000000
O     2.580000000    -3.740000000     6.615000000
H     1.860000000    -3.526000000     6.022000000
H     2.839000000    -4.627000000     6.368000000
O    -0.632000000     4.498000000    -1.883000000
H    -1.031000000     3.824000000    -2.433000000
H     0.298000000     4.270000000    -1.862000000
O    -1.495000000     0.169000000    -5.693000000
H    -0.832000000    -0.374000000    -5.267000000
H    -1.837000000    -0.379000000    -6.399000000
O     4.096000000    -0.407000000    -4.097000000
H     3.474000000    -0.960000000    -3.624000000
H     3.856000000     0.487000000    -3.850000000
O    -1.529000000    -5.747000000     0.239000000
H    -1.646000000    -6.660000000     0.499000000
H    -0.580000000    -5.621000000     0.227000000
O    -2.805000000    -4.462000000     5.292000000
H    -2.072000000    -3.975000000     4.917000000
H    -3.005000000    -5.134000000     4.641000000
O     2.382000000    -2.196000000    -2.595000000
H     2.855000000    -2.919000000    -2.183000000
H     2.268000000    -1.554000000    -1.894000000
O     2.405000000    -6.657000000    -2.038000000
H     3.160000000    -7.208000000    -2.247000000
H     1.881000000    -7.188000000    -1.438000000
O     4.482000000    -5.114000000     4.258000000
H     4.593000000    -4.928000000     5.190000000
H     4.063000000    -4.329000000     3.905000000
O    -3.405000000     0.428000000    -3.836000000
H    -2.874000000     0.230000000    -4.607000000
H    -2.955000000     1.162000000    -3.418000000
O    -3.059000000     2.655000000     1.068000000
H    -2.868000000     3.578000000     1.232000000
H    -3.815000000     2.668000000     0.481000000
O     0.137000000     6.346000000     2.288000000
H     0.325000000     6.338000000     1.349000000
H    -0.590000000     6.960000000     2.381000000
O    -0.888000000     4.154000000    -5.187000000
H    -1.062000000     4.897000000    -5.766000000
H     0.036000000     4.243000000    -4.955000000
O    -5.236000000    -1.998000000     0.824000000
H    -4.337000000    -2.030000000     0.497000000
H    -5.216000000    -2.511000000     1.631000000
O     2.088000000     1.132000000    -2.604000000
H     2.163000000     2.059000000    -2.377000000
H     1.159000000     0.933000000    -2.492000000
O     2.120000000     4.062000000    -1.757000000
H     2.745000000     3.897000000    -1.051000000
H     2.542000000     4.729000000    -2.299000000
O     0.324000000    -4.822000000    -2.378000000
H     0.932000000    -4.340000000    -1.816000000
H     0.814000000    -5.598000000    -2.649000000
O     5.635000000     1.743000000     4.332000000
H     4.922000000     2.018000000     3.754000000
H     5.236000000     1.097000000     4.914000000
O     0.108000000    -2.144000000    -4.821000000
H     0.697000000    -2.019000000    -4.077000000
H    -0.477000000    -2.850000000    -4.549000000
O    -2.632000000     5.246000000    -0.083000000
H    -2.988000000     6.084000000    -0.379000000
H    -1.997000000     5.004000000    -0.757000000
O     3.597000000     1.831000000     0.170000000
H     2.987000000     1.175000000    -0.167000000
H     4.341000000     1.797000000    -0.431000000
O     2.153000000     0.195000000     4.316000000
H     2.562000000    -0.610000000     4.633000000
H     2.885000000     0.791000000     4.160000000
O     1.230000000    -6.003000000     1.605000000
H     1.086000000    -5.182000000     1.135000000
H     1.601000000    -6.593000000     0.948000000
O    -1.476000000    -4.431000000    -4.320000000
H    -0.843000000    -5.016000000    -3.904000000
H    -1.879000000    -3.958000000    -3.592000000
O    -0.813000000    -6.595000000     3.754000000
H    -0.425000000    -6.452000000     2.891000000
H    -1.676000000    -6.967000000     3.569000000
O     1.452000000    -4.301000000     3.843000000
H     1.204000000    -5.215000000     3.704000000
H     1.059000000    -3.831000000     3.108000000
O    -5.743000000    -1.484000000    -3.150000000
H    -5.014000000    -0.866000000    -3.210000000
H    -6.405000000    -1.132000000    -3.745000000
O     3.547000000     2.484000000     3.019000000
H     3.226000000     3.386000000     3.037000000
H     3.582000000     2.261000000     2.089000000
O     3.100000000    -2.242000000     4.302000000
H     3.258000000    -2.044000000     3.379000000
H     2.502000000    -2.989000000     4.288000000
O     0.441000000     5.573000000     5.258000000
H     0.920000000     5.563000000     4.430000000
H     1.077000000     5.271000000     5.907000000
O    -0.655000000    -2.111000000     6.343000000
H    -0.294000000    -1.227000000     6.408000000
H    -0.962000000    -2.178000000     5.439000000
O    -2.548000000     2.917000000    -3.326000000
H    -3.381000000     3.370000000    -3.195000000
H    -2.107000000     3.420000000    -4.011000000
O    -5.143000000     3.988000000    -3.261000000
H    -5.330000000     4.908000000    -3.446000000
H    -5.503000000     3.515000000    -4.011000000
