158
-2997.68028
C    -0.285000000    -0.994000000     1.052000000
H    -0.682000000    -1.613000000     1.852000000
C    -0.294000000     0.377000000     1.249000000
H    -0.670000000     0.742000000     2.202000000
C    -0.023000000     1.166000000     0.208000000
H    -0.143000000     2.295000000     0.293000000
C     0.346000000     0.646000000    -1.073000000
H     0.440000000     1.273000000    -1.956000000
C     0.446000000    -0.730000000    -1.318000000
H     0.836000000    -1.010000000    -2.294000000
C     0.112000000    -1.545000000    -0.206000000
C     0.195000000    -3.015000000    -0.307000000
O     0.194000000    -3.683000000     0.729000000
O     0.600000000    -3.481000000    -1.356000000
O     1.699000000     3.048000000     4.708000000
H     1.093000000     3.661000000     5.123000000
H     1.723000000     3.319000000     3.790000000
O    -0.246000000    -6.228000000     1.151000000
H     0.663000000    -6.497000000     1.018000000
H    -0.194000000    -5.288000000     1.324000000
O    -4.564000000    -1.605000000     0.605000000
H    -4.448000000    -2.471000000     0.997000000
H    -3.681000000    -1.334000000     0.355000000
O    -3.426000000     3.863000000    -4.000000000
H    -4.268000000     3.674000000    -4.413000000
H    -2.777000000     3.659000000    -4.674000000
O     3.855000000    -6.516000000     0.022000000
H     3.402000000    -5.758000000     0.390000000
H     4.560000000    -6.698000000     0.643000000
O    -3.150000000     0.528000000     2.877000000
H    -4.041000000     0.372000000     3.190000000
H    -2.594000000     0.048000000     3.490000000
O    -1.265000000    -5.167000000    -2.187000000
H    -1.889000000    -4.477000000    -2.410000000
H    -0.580000000    -4.719000000    -1.690000000
O     2.501000000    -4.600000000     1.167000000
H     2.463000000    -4.759000000     2.110000000
H     1.629000000    -4.274000000     0.943000000
O    -1.275000000    -7.716000000    -1.073000000
H    -1.020000000    -6.977000000    -0.520000000
H    -1.586000000    -7.313000000    -1.883000000
O     0.305000000    -2.955000000    -4.074000000
H    -0.538000000    -2.524000000    -4.212000000
H     0.372000000    -3.051000000    -3.124000000
O    -2.750000000     4.567000000     0.422000000
H    -3.633000000     4.228000000     0.570000000
H    -2.393000000     4.010000000    -0.270000000
O    -3.903000000     3.253000000     5.177000000
H    -3.918000000     2.386000000     5.584000000
H    -2.994000000     3.373000000     4.903000000
O    -1.852000000     2.962000000    -1.831000000
H    -2.487000000     3.013000000    -2.546000000
H    -1.954000000     2.076000000    -1.483000000
O     3.733000000    -6.219000000    -2.791000000
H     2.876000000    -6.606000000    -2.971000000
H     3.664000000    -5.890000000    -1.895000000
O     3.531000000     1.910000000    -2.769000000
H     3.060000000     1.824000000    -1.940000000
H     4.413000000     2.182000000    -2.516000000
O     3.076000000    -2.818000000    -1.544000000
H     3.322000000    -3.178000000    -2.396000000
H     2.176000000    -3.114000000    -1.409000000
O    -4.266000000     1.825000000     0.484000000
H    -4.447000000     2.510000000     1.128000000
H    -3.726000000     1.190000000     0.955000000
O     2.098000000    -5.991000000     3.556000000
H     1.875000000    -6.487000000     4.344000000
H     1.475000000    -5.265000000     3.546000000
O     1.959000000     7.699000000     1.983000000
H     2.006000000     6.829000000     1.587000000
H     1.717000000     8.278000000     1.260000000
O     3.143000000     0.613000000     5.494000000
H     2.757000000     1.384000000     5.077000000
H     4.081000000     0.798000000     5.518000000
O    -0.447000000     5.593000000     0.893000000
H     0.041000000     5.952000000     0.153000000
H    -1.325000000     5.434000000     0.547000000
O     0.143000000    -5.391000000    -5.571000000
H     0.120000000    -4.622000000    -5.002000000
H     1.075000000    -5.582000000    -5.678000000
O    -3.947000000    -3.802000000     2.203000000
H    -4.163000000    -4.735000000     2.203000000
H    -3.443000000    -3.673000000     3.006000000
O     2.308000000    -0.912000000     2.972000000
H     1.422000000    -0.807000000     2.625000000
H     2.198000000    -0.880000000     3.922000000
O     1.301000000    -7.467000000    -2.344000000
H     0.596000000    -7.668000000    -1.728000000
H     2.033000000    -8.012000000    -2.055000000
O    -0.234000000     5.613000000     4.861000000
H    -0.513000000     5.470000000     3.956000000
H    -0.709000000     6.397000000     5.136000000
O     0.727000000     6.136000000    -1.457000000
H     0.580000000     7.065000000    -1.631000000
H     1.617000000     5.972000000    -1.769000000
O     3.784000000    -3.028000000    -4.037000000
H     3.260000000    -2.845000000    -4.817000000
H     4.614000000    -2.577000000    -4.195000000
O     1.927000000    -2.828000000    -6.351000000
H     1.258000000    -2.842000000    -5.666000000
H     2.290000000    -3.714000000    -6.349000000
O     4.212000000     4.885000000    -1.942000000
H     5.095000000     4.622000000    -2.202000000
H     4.093000000     5.749000000    -2.338000000
O    -2.911000000     5.634000000     3.285000000
H    -2.347000000     4.889000000     3.080000000
H    -3.376000000     5.814000000     2.468000000
O    -1.884000000    -3.540000000     5.680000000
H    -2.560000000    -4.081000000     5.272000000
H    -1.198000000    -4.160000000     5.926000000
O     0.104000000    -4.054000000     3.657000000
H    -0.615000000    -3.520000000     3.996000000
H    -0.039000000    -4.075000000     2.711000000
O     2.115000000     0.466000000    -4.520000000
H     2.646000000     1.097000000    -4.035000000
H     2.487000000    -0.386000000    -4.292000000
O    -1.713000000    -7.070000000     3.682000000
H    -2.524000000    -7.471000000     3.995000000
H    -1.677000000    -7.296000000     2.752000000
O    -3.377000000    -3.013000000    -3.085000000
H    -4.021000000    -2.517000000    -2.581000000
H    -2.715000000    -2.366000000    -3.330000000
O     5.721000000    -3.842000000    -1.111000000
H     4.788000000    -3.629000000    -1.105000000
H     6.159000000    -3.000000000    -1.234000000
O    -1.549000000     3.033000000     3.491000000
H    -1.878000000     2.151000000     3.317000000
H    -0.833000000     3.150000000     2.867000000
O     2.720000000    -5.643000000    -5.454000000
H     3.157000000    -6.494000000    -5.475000000
H     3.029000000    -5.234000000    -4.646000000
O     1.831000000    -8.237000000     2.063000000
H     1.985000000    -7.501000000     2.655000000
H     2.700000000    -8.609000000     1.914000000
O     0.073000000     2.411000000    -5.447000000
H     0.663000000     1.741000000    -5.100000000
H     0.614000000     3.198000000    -5.508000000
O     5.249000000    -3.344000000     1.682000000
H     5.585000000    -3.403000000     0.788000000
H     4.355000000    -3.681000000     1.625000000
O     3.377000000     3.872000000     0.569000000
H     3.529000000     2.928000000     0.614000000
H     3.817000000     4.147000000    -0.235000000
O    -0.683000000     5.458000000    -3.643000000
H     0.062000000     5.804000000    -3.153000000
H    -1.177000000     4.948000000    -3.001000000
O     3.336000000     1.219000000     0.378000000
H     2.444000000     0.916000000     0.551000000
H     3.807000000     0.432000000     0.103000000
O     1.371000000     4.160000000     2.282000000
H     2.111000000     4.039000000     1.687000000
H     0.743000000     4.680000000     1.781000000
O    -1.304000000    -0.609000000     4.743000000
H    -0.478000000    -0.396000000     5.176000000
H    -1.504000000    -1.499000000     5.032000000
O    -1.426000000     0.037000000    -5.577000000
H    -1.048000000     0.915000000    -5.619000000
H    -2.308000000     0.172000000    -5.231000000
