158
-3019.81805
C     0.578000000    -1.316000000     0.533000000
H     0.918000000    -2.215000000     1.042000000
C    -0.616000000    -0.640000000     0.975000000
H    -1.336000000    -1.092000000     1.653000000
C    -0.991000000     0.615000000     0.403000000
H    -1.925000000     1.113000000     0.681000000
C    -0.197000000     1.184000000    -0.589000000
H    -0.434000000     2.183000000    -0.946000000
C     0.976000000     0.543000000    -0.999000000
H     1.549000000     1.021000000    -1.788000000
C     1.308000000    -0.746000000    -0.549000000
C     2.507000000    -1.390000000    -1.142000000
O     3.380000000    -0.711000000    -1.640000000
O     2.649000000    -2.561000000    -1.062000000
O     3.506000000    -3.889000000    -3.298000000
H     4.364000000    -3.873000000    -2.874000000
H     2.920000000    -3.472000000    -2.666000000
O    -2.117000000    -3.480000000     5.874000000
H    -1.674000000    -3.687000000     6.696000000
H    -1.417000000    -3.471000000     5.221000000
O    -1.758000000     1.457000000    -5.286000000
H    -2.568000000     1.912000000    -5.058000000
H    -1.063000000     2.016000000    -4.940000000
O    -4.351000000    -1.468000000     3.150000000
H    -3.786000000    -2.239000000     3.211000000
H    -3.760000000    -0.727000000     3.286000000
O     0.844000000     2.434000000     3.311000000
H     1.000000000     3.360000000     3.127000000
H     1.533000000     1.974000000     2.831000000
O     5.110000000    -0.733000000     2.728000000
H     5.425000000    -1.611000000     2.941000000
H     4.165000000    -0.775000000     2.877000000
O    -0.843000000    -3.687000000    -1.639000000
H    -0.912000000    -3.357000000    -2.535000000
H    -1.515000000    -3.208000000    -1.155000000
O     1.863000000     4.571000000     1.669000000
H     2.787000000     4.534000000     1.914000000
H     1.544000000     5.386000000     2.056000000
O    -1.407000000     3.695000000     2.525000000
H    -0.664000000     3.126000000     2.726000000
H    -1.695000000     4.024000000     3.377000000
O     7.501000000    -0.750000000    -2.100000000
H     7.550000000    -1.682000000    -1.889000000
H     6.770000000    -0.682000000    -2.714000000
O    -0.227000000    -4.581000000     2.092000000
H    -0.090000000    -3.946000000     2.795000000
H     0.641000000    -4.947000000     1.927000000
O     0.171000000    -2.512000000     3.893000000
H    -0.055000000    -1.683000000     4.317000000
H     1.112000000    -2.449000000     3.732000000
O    -1.014000000     4.848000000    -4.136000000
H    -0.280000000     4.263000000    -3.946000000
H    -1.536000000     4.845000000    -3.334000000
O    -3.849000000     0.492000000    -1.317000000
H    -4.008000000     1.280000000    -1.838000000
H    -3.908000000     0.789000000    -0.409000000
O     2.634000000     1.046000000     1.837000000
H     1.917000000     0.574000000     1.413000000
H     3.371000000     0.957000000     1.233000000
O    -5.200000000     4.159000000    -1.692000000
H    -4.244000000     4.182000000    -1.726000000
H    -5.463000000     5.079000000    -1.739000000
O    -0.156000000     4.433000000    -0.018000000
H     0.706000000     4.467000000     0.397000000
H    -0.754000000     4.196000000     0.690000000
O     1.236000000     3.535000000    -3.604000000
H     1.487000000     2.648000000    -3.862000000
H     1.875000000     3.781000000    -2.936000000
O    -5.642000000     3.966000000     2.129000000
H    -5.756000000     4.068000000     3.074000000
H    -6.464000000     4.281000000     1.753000000
O    -1.912000000     6.177000000     1.842000000
H    -2.728000000     6.233000000     1.343000000
H    -1.758000000     5.238000000     1.944000000
O     3.132000000    -6.962000000     0.323000000
H     2.589000000    -7.584000000     0.807000000
H     2.570000000    -6.197000000     0.203000000
O    -7.534000000     2.470000000     0.084000000
H    -7.619000000     1.663000000    -0.424000000
H    -6.657000000     2.423000000     0.464000000
O     5.474000000    -3.185000000    -1.290000000
H     5.915000000    -2.759000000    -0.555000000
H     4.576000000    -2.855000000    -1.254000000
O    -2.493000000     4.800000000    -1.669000000
H    -1.645000000     4.536000000    -1.311000000
H    -2.580000000     5.721000000    -1.424000000
O     6.657000000    -0.125000000    -5.206000000
H     6.866000000    -0.766000000    -5.885000000
H     5.778000000    -0.365000000    -4.913000000
O     2.978000000    -4.421000000     1.896000000
H     2.648000000    -4.184000000     1.030000000
H     3.870000000    -4.729000000     1.738000000
O     4.291000000     2.046000000    -4.585000000
H     4.153000000     1.346000000    -3.948000000
H     4.491000000     1.590000000    -5.403000000
O     1.586000000    -4.803000000    -0.380000000
H     0.699000000    -4.484000000    -0.545000000
H     2.148000000    -4.046000000    -0.549000000
O    -3.454000000    -1.215000000    -3.683000000
H    -3.562000000    -0.857000000    -2.802000000
H    -2.805000000    -0.645000000    -4.096000000
O    -5.999000000    -0.635000000     1.070000000
H    -5.555000000    -1.140000000     1.752000000
H    -5.584000000     0.227000000     1.103000000
O     1.507000000     6.796000000    -0.713000000
H     1.166000000     5.902000000    -0.683000000
H     2.430000000     6.693000000    -0.945000000
O     1.555000000    -0.464000000    -5.076000000
H     1.398000000     0.450000000    -5.312000000
H     1.535000000    -0.934000000    -5.909000000
O    -3.050000000     1.256000000     3.056000000
H    -2.278000000     1.700000000     2.706000000
H    -3.142000000     1.600000000     3.945000000
O    -6.933000000     0.404000000    -1.557000000
H    -6.373000000     0.489000000    -2.328000000
H    -6.456000000    -0.193000000    -0.980000000
O    -2.745000000     2.112000000     5.870000000
H    -2.723000000     3.013000000     5.548000000
H    -3.287000000     2.153000000     6.658000000
O     6.623000000    -5.419000000    -2.149000000
H     6.215000000    -6.226000000    -1.835000000
H     6.107000000    -4.718000000    -1.751000000
O     4.164000000    -0.723000000    -3.998000000
H     3.337000000    -0.900000000    -4.447000000
H     3.945000000    -0.764000000    -3.067000000
O    -0.982000000    -2.714000000    -4.329000000
H    -0.074000000    -2.434000000    -4.214000000
H    -1.374000000    -2.036000000    -4.879000000
O    -2.805000000    -2.334000000    -0.732000000
H    -3.616000000    -2.718000000    -0.400000000
H    -2.822000000    -1.430000000    -0.417000000
O    -4.719000000     1.775000000     1.102000000
H    -4.197000000     1.551000000     1.873000000
H    -5.015000000     2.670000000     1.265000000
O    -4.553000000     6.251000000     1.194000000
H    -5.004000000     5.409000000     1.257000000
H    -5.096000000     6.853000000     1.703000000
O    -3.217000000    -3.809000000     2.912000000
H    -3.518000000    -4.621000000     3.319000000
H    -2.366000000    -4.031000000     2.534000000
O    -4.814000000    -3.957000000     0.449000000
H    -4.593000000    -4.795000000     0.042000000
H    -4.463000000    -4.023000000     1.337000000
O     2.764000000    -2.570000000     3.878000000
H     2.816000000    -3.099000000     4.674000000
H     3.158000000    -3.117000000     3.200000000
O    -0.284000000    -0.168000000     4.848000000
H    -0.331000000     0.329000000     4.031000000
H    -0.175000000     0.498000000     5.527000000
O     3.021000000     3.919000000    -1.537000000
H     3.283000000     3.030000000    -1.300000000
H     3.408000000     4.472000000    -0.859000000
O     4.470000000     1.051000000    -0.190000000
H     4.170000000     0.361000000    -0.780000000
H     5.424000000     1.039000000    -0.273000000
O     1.390000000    -6.095000000    -4.045000000
H     1.420000000    -6.938000000    -4.498000000
H     2.306000000    -5.894000000    -3.852000000
