158
-3029.26199
C    -0.428000000    -0.983000000     1.032000000
H    -0.858000000    -1.641000000     1.783000000
C    -0.266000000     0.402000000     1.289000000
H    -0.463000000     0.869000000     2.250000000
C     0.118000000     1.165000000     0.178000000
H     0.171000000     2.298000000     0.363000000
C     0.145000000     0.676000000    -1.126000000
H     0.467000000     1.290000000    -1.963000000
C     0.073000000    -0.680000000    -1.290000000
H     0.405000000    -1.083000000    -2.243000000
C    -0.209000000    -1.561000000    -0.233000000
C    -0.279000000    -3.060000000    -0.454000000
O    -0.567000000    -3.730000000     0.572000000
O    -0.075000000    -3.554000000    -1.571000000
O     2.134000000     3.253000000     4.787000000
H     2.926000000     3.785000000     4.871000000
H     1.490000000     3.843000000     4.397000000
O    -2.413000000    -0.238000000     6.289000000
H    -1.734000000    -0.455000000     5.650000000
H    -2.967000000    -1.018000000     6.323000000
O    -4.489000000     4.284000000     2.806000000
H    -4.961000000     4.008000000     3.593000000
H    -4.283000000     3.467000000     2.352000000
O     1.255000000    -6.010000000     3.768000000
H     1.936000000    -6.032000000     4.440000000
H     0.435000000    -5.977000000     4.260000000
O    -1.079000000    -6.148000000     1.118000000
H    -1.681000000    -6.026000000     1.853000000
H    -0.993000000    -5.277000000     0.731000000
O    -4.700000000    -3.268000000    -1.656000000
H    -4.308000000    -4.021000000    -1.214000000
H    -5.507000000    -3.609000000    -2.042000000
O    -1.735000000    -8.245000000    -0.724000000
H    -2.050000000    -8.632000000     0.093000000
H    -1.090000000    -7.594000000    -0.447000000
O     1.029000000    -7.785000000     1.620000000
H     0.327000000    -7.135000000     1.585000000
H     1.621000000    -7.460000000     2.299000000
O    -2.879000000    -0.690000000     3.448000000
H    -2.333000000    -1.292000000     2.943000000
H    -3.350000000    -1.252000000     4.063000000
O    -1.643000000    -5.063000000    -3.313000000
H    -1.868000000    -4.409000000    -3.976000000
H    -1.157000000    -4.573000000    -2.650000000
O     0.764000000    -1.057000000     5.449000000
H     1.163000000    -1.673000000     6.062000000
H     1.009000000    -0.194000000     5.782000000
O     1.720000000    -4.118000000     2.050000000
H     1.583000000    -4.853000000     2.647000000
H     0.867000000    -3.985000000     1.635000000
O    -3.419000000    -5.898000000    -1.316000000
H    -3.069000000    -6.705000000    -0.937000000
H    -2.773000000    -5.643000000    -1.975000000
O    -0.473000000    -3.123000000    -6.946000000
H    -0.322000000    -2.306000000    -7.422000000
H    -0.252000000    -2.915000000    -6.038000000
O    -3.490000000     3.816000000    -0.743000000
H    -4.368000000     4.152000000    -0.568000000
H    -3.631000000     2.913000000    -1.028000000
O    -1.927000000     2.540000000     4.828000000
H    -1.686000000     2.067000000     5.624000000
H    -2.264000000     1.863000000     4.240000000
O     4.174000000    -6.496000000    -1.438000000
H     3.326000000    -6.063000000    -1.335000000
H     4.748000000    -6.049000000    -0.816000000
O    -3.364000000     6.424000000    -1.159000000
H    -3.353000000     5.468000000    -1.121000000
H    -3.578000000     6.697000000    -0.266000000
O     0.446000000    -3.040000000    -4.097000000
H     0.768000000    -3.881000000    -4.420000000
H     0.306000000    -3.181000000    -3.160000000
O    -3.411000000     0.701000000    -0.829000000
H    -3.906000000     1.099000000    -1.545000000
H    -2.800000000     0.106000000    -1.263000000
O    -2.781000000    -5.875000000     3.359000000
H    -2.469000000    -5.749000000     4.255000000
H    -3.582000000    -6.390000000     3.455000000
O     1.899000000     7.205000000     0.450000000
H     1.585000000     6.398000000     0.043000000
H     2.008000000     7.815000000    -0.279000000
O     1.978000000     1.137000000     6.571000000
H     1.918000000     1.884000000     5.976000000
H     1.801000000     1.506000000     7.437000000
O    -0.921000000     4.827000000     0.427000000
H    -0.143000000     4.514000000    -0.035000000
H    -1.633000000     4.281000000     0.093000000
O    -5.206000000    -2.699000000     1.509000000
H    -4.281000000    -2.945000000     1.523000000
H    -5.366000000    -2.319000000     2.373000000
O     2.567000000    -0.852000000     2.802000000
H     3.055000000    -1.585000000     3.175000000
H     1.852000000    -0.701000000     3.420000000
O    -5.704000000    -0.601000000    -0.025000000
H    -5.652000000    -1.532000000     0.195000000
H    -4.792000000    -0.311000000    -0.055000000
O     1.689000000    -5.585000000    -2.215000000
H     1.090000000    -4.914000000    -1.888000000
H     1.724000000    -5.436000000    -3.160000000
O    -0.630000000     4.960000000     5.025000000
H     0.001000000     4.951000000     4.305000000
H    -1.180000000     4.192000000     4.872000000
O     6.061000000     4.134000000    -1.229000000
H     5.227000000     3.671000000    -1.151000000
H     6.283000000     4.380000000    -0.332000000
O     1.347000000     4.554000000    -1.095000000
H     1.579000000     5.295000000    -1.654000000
H     1.668000000     3.786000000    -1.568000000
O     1.685000000    -5.525000000    -4.737000000
H     2.593000000    -5.400000000    -4.461000000
H     1.750000000    -5.843000000    -5.638000000
O     4.026000000     1.505000000     1.904000000
H     3.478000000     2.290000000     1.902000000
H     3.403000000     0.779000000     1.955000000
O     2.871000000     1.438000000    -4.750000000
H     2.038000000     1.806000000    -4.454000000
H     3.064000000     1.906000000    -5.563000000
O    -2.503000000     5.884000000     2.223000000
H    -3.164000000     5.212000000     2.395000000
H    -1.954000000     5.508000000     1.535000000
O     0.830000000    -8.322000000    -3.112000000
H     1.429000000    -7.608000000    -2.894000000
H     0.863000000    -8.903000000    -2.352000000
O    -2.752000000    -3.313000000     2.307000000
H    -2.959000000    -4.035000000     2.900000000
H    -1.889000000    -3.531000000     1.956000000
O    -3.668000000     1.584000000     1.984000000
H    -3.358000000     0.791000000     2.422000000
H    -3.505000000     1.424000000     1.055000000
O    -1.124000000    -7.187000000    -4.777000000
H    -0.627000000    -7.689000000    -4.130000000
H    -1.431000000    -6.418000000    -4.298000000
O    -1.108000000    -0.221000000    -5.153000000
H    -2.016000000    -0.283000000    -4.858000000
H    -0.612000000    -0.729000000    -4.511000000
O     3.819000000    -3.475000000    -0.491000000
H     2.930000000    -3.617000000    -0.168000000
H     3.700000000    -3.104000000    -1.366000000
O     2.767000000     3.813000000     1.193000000
H     3.565000000     4.342000000     1.199000000
H     2.526000000     3.753000000     0.269000000
O     2.987000000     2.378000000    -2.030000000
H     2.944000000     1.596000000    -1.479000000
H     3.258000000     2.052000000    -2.888000000
O     0.583000000     3.297000000    -4.884000000
H     0.025000000     4.073000000    -4.932000000
H    -0.007000000     2.566000000    -5.070000000
O     2.692000000    -0.518000000    -0.226000000
H     2.915000000    -0.964000000     0.591000000
H     1.770000000    -0.280000000    -0.125000000
O     0.742000000     4.583000000     2.879000000
H     1.401000000     4.228000000     2.282000000
H     0.131000000     5.051000000     2.309000000
O    -0.769000000    -2.894000000     4.505000000
H    -0.070000000    -2.337000000     4.848000000
H    -0.320000000    -3.516000000     3.932000000
O    -3.105000000    -0.905000000    -3.367000000
H    -3.573000000    -1.418000000    -2.708000000
H    -3.660000000    -0.952000000    -4.145000000
