158
-3030.85538
C     0.806000000    -0.552000000     1.082000000
H     1.495000000    -0.792000000     1.887000000
C     1.209000000     0.329000000     0.092000000
H     2.218000000     0.733000000     0.121000000
C     0.405000000     0.636000000    -0.978000000
H     0.837000000     1.254000000    -1.712000000
C    -0.873000000     0.081000000    -1.047000000
H    -1.544000000     0.271000000    -1.880000000
C    -1.328000000    -0.688000000     0.047000000
H    -2.374000000    -0.984000000     0.028000000
C    -0.505000000    -1.050000000     1.101000000
C    -1.060000000    -1.627000000     2.433000000
O    -0.408000000    -1.565000000     3.464000000
O    -2.166000000    -1.998000000     2.488000000
O     1.392000000     3.895000000     1.966000000
H     1.493000000     3.705000000     2.898000000
H     0.926000000     4.731000000     1.940000000
O     3.381000000     3.605000000    -0.021000000
H     2.907000000     3.742000000     0.799000000
H     3.893000000     2.810000000     0.128000000
O    -0.776000000     2.085000000     2.116000000
H    -0.507000000     1.359000000     1.553000000
H    -0.254000000     2.829000000     1.813000000
O     6.706000000     1.493000000    -2.731000000
H     6.562000000     1.029000000    -1.907000000
H     5.829000000     1.744000000    -3.021000000
O    -2.282000000    -5.269000000     4.834000000
H    -1.660000000    -4.545000000     4.899000000
H    -2.787000000    -5.080000000     4.043000000
O     3.693000000     2.530000000     5.188000000
H     4.034000000     2.025000000     4.450000000
H     4.271000000     3.291000000     5.245000000
O     1.490000000     3.889000000    -2.347000000
H     1.767000000     3.405000000    -3.124000000
H     2.137000000     3.662000000    -1.680000000
O    -0.306000000     5.501000000    -0.886000000
H    -0.790000000     4.871000000    -0.353000000
H     0.305000000     4.967000000    -1.393000000
O    -4.390000000    -1.053000000     1.426000000
H    -4.576000000    -1.918000000     1.061000000
H    -3.615000000    -1.184000000     1.971000000
O     2.108000000     2.486000000    -5.075000000
H     2.621000000     2.556000000    -5.880000000
H     1.221000000     2.734000000    -5.334000000
O    -7.447000000    -3.233000000    -0.865000000
H    -6.565000000    -2.869000000    -0.939000000
H    -7.325000000    -4.177000000    -0.967000000
O    -1.104000000    -4.999000000     1.436000000
H    -2.007000000    -5.310000000     1.497000000
H    -1.080000000    -4.222000000     1.995000000
O     2.772000000    -4.346000000     0.237000000
H     2.494000000    -3.489000000    -0.087000000
H     3.388000000    -4.147000000     0.943000000
O     1.959000000    -2.357000000    -1.807000000
H     1.395000000    -1.675000000    -1.445000000
H     2.530000000    -1.895000000    -2.421000000
O    -0.078000000    -2.494000000    -4.528000000
H     0.044000000    -3.340000000    -4.960000000
H     0.641000000    -2.440000000    -3.900000000
O    -6.767000000     0.508000000     1.838000000
H    -7.576000000     0.158000000     2.210000000
H    -6.152000000    -0.225000000     1.868000000
O    -1.379000000    -4.738000000    -1.292000000
H    -0.599000000    -4.921000000    -1.816000000
H    -1.062000000    -4.723000000    -0.389000000
O    -1.003000000     0.528000000    -5.343000000
H    -1.191000000    -0.269000000    -4.846000000
H    -1.159000000     1.239000000    -4.721000000
O     4.125000000     1.601000000    -3.399000000
H     3.373000000     1.951000000    -3.876000000
H     3.821000000     0.761000000    -3.055000000
O    -0.059000000     4.144000000    -6.339000000
H    -0.986000000     4.069000000    -6.564000000
H     0.402000000     3.926000000    -7.149000000
O     3.087000000    -3.605000000     3.506000000
H     3.896000000    -3.383000000     3.044000000
H     3.268000000    -4.453000000     3.911000000
O    -4.123000000    -5.210000000    -2.157000000
H    -3.331000000    -4.883000000    -1.730000000
H    -3.813000000    -5.904000000    -2.739000000
O    -3.251000000     1.194000000     3.286000000
H    -3.624000000     0.460000000     2.798000000
H    -2.383000000     1.321000000     2.902000000
O    -2.387000000    -2.498000000    -3.005000000
H    -1.581000000    -2.523000000    -3.521000000
H    -2.172000000    -2.971000000    -2.202000000
O     2.205000000    -0.406000000    -3.791000000
H     1.409000000     0.073000000    -4.022000000
H     2.767000000    -0.321000000    -4.561000000
O    -4.733000000    -2.060000000    -4.369000000
H    -5.110000000    -2.938000000    -4.428000000
H    -3.867000000    -2.197000000    -3.984000000
O     3.855000000     6.235000000     1.155000000
H     3.754000000     5.568000000     1.834000000
H     3.017000000     6.234000000     0.692000000
O    -3.743000000    -5.606000000     1.755000000
H    -4.213000000    -5.340000000     2.545000000
H    -3.951000000    -6.535000000     1.654000000
O     6.015000000    -0.845000000    -1.428000000
H     5.822000000    -1.695000000    -1.824000000
H     6.432000000    -1.059000000    -0.594000000
O     0.700000000     6.538000000    -5.318000000
H     1.330000000     6.532000000    -4.597000000
H     0.600000000     5.616000000    -5.556000000
O     4.035000000    -1.155000000     0.783000000
H     4.793000000    -1.727000000     0.902000000
H     4.027000000    -0.602000000     1.564000000
O    -4.804000000    -4.222000000     4.017000000
H    -4.251000000    -3.483000000     4.273000000
H    -5.139000000    -4.568000000     4.844000000
O    -0.271000000     0.338000000     5.400000000
H    -0.208000000     1.125000000     4.858000000
H    -0.317000000    -0.382000000     4.771000000
O     0.784000000    -1.571000000    -7.263000000
H     0.447000000    -1.200000000    -6.448000000
H     0.788000000    -2.516000000    -7.113000000
O    -0.231000000    -1.915000000     7.254000000
H    -0.199000000    -1.045000000     6.855000000
H    -0.202000000    -2.520000000     6.512000000
O    -3.126000000     2.933000000    -5.042000000
H    -2.552000000     2.964000000    -4.277000000
H    -3.676000000     2.162000000    -4.898000000
O     1.298000000     3.188000000     4.560000000
H     2.125000000     2.734000000     4.722000000
H     1.007000000     3.470000000     5.427000000
O    -0.090000000    -3.685000000     5.068000000
H     0.114000000    -3.073000000     4.361000000
H     0.315000000    -4.509000000     4.796000000
O    -3.257000000    -2.127000000     5.121000000
H    -2.573000000    -2.120000000     4.451000000
H    -3.431000000    -1.202000000     5.296000000
O    -4.624000000     0.785000000    -1.056000000
H    -4.203000000     0.283000000    -0.358000000
H    -5.525000000     0.905000000    -0.755000000
O     4.954000000     1.565000000     0.425000000
H     5.912000000     1.563000000     0.424000000
H     4.713000000     0.700000000     0.093000000
O     4.981000000     5.333000000    -2.477000000
H     5.852000000     5.518000000    -2.127000000
H     4.475000000     5.042000000    -1.718000000
O    -4.405000000     0.762000000    -3.721000000
H    -4.250000000    -0.102000000    -4.103000000
H    -4.289000000     0.632000000    -2.780000000
O    -2.465000000     3.345000000    -0.173000000
H    -2.951000000     2.557000000    -0.416000000
H    -2.577000000     3.412000000     0.776000000
O    -4.663000000    -3.538000000     0.020000000
H    -4.545000000    -4.042000000    -0.786000000
H    -4.493000000    -4.167000000     0.722000000
O     5.513000000     0.879000000     3.627000000
H     6.347000000     0.409000000     3.605000000
H     4.910000000     0.275000000     4.060000000
O     2.751000000    -0.854000000     4.776000000
H     1.887000000    -0.443000000     4.787000000
H     2.570000000    -1.794000000     4.763000000
O    -1.165000000     2.619000000    -3.005000000
H    -1.800000000     2.608000000    -2.289000000
H    -0.561000000     3.326000000    -2.779000000
