158
-3016.12440
C     1.070000000    -0.829000000     0.608000000
H     1.844000000    -1.357000000     1.159000000
C     1.076000000     0.530000000     0.528000000
H     1.863000000     1.129000000     0.979000000
C     0.026000000     1.245000000    -0.064000000
H    -0.081000000     2.307000000    -0.053000000
C    -1.024000000     0.457000000    -0.704000000
H    -1.882000000     0.872000000    -1.227000000
C    -1.026000000    -0.895000000    -0.627000000
H    -1.745000000    -1.501000000    -1.174000000
C     0.021000000    -1.580000000     0.087000000
C     0.003000000    -3.077000000     0.266000000
O     0.866000000    -3.590000000     0.850000000
O    -0.800000000    -3.718000000    -0.364000000
O     2.383000000     2.884000000     3.335000000
H     2.131000000     3.507000000     2.654000000
H     2.832000000     3.416000000     3.992000000
O    -4.908000000     1.250000000    -2.208000000
H    -4.345000000     1.968000000    -1.920000000
H    -4.702000000     0.530000000    -1.612000000
O     5.879000000    -0.540000000     1.273000000
H     5.517000000    -1.397000000     1.502000000
H     6.288000000    -0.674000000     0.418000000
O    -3.419000000    -1.991000000     1.712000000
H    -3.163000000    -2.910000000     1.792000000
H    -2.836000000    -1.527000000     2.312000000
O    -0.842000000    -6.285000000     3.487000000
H     0.078000000    -6.066000000     3.637000000
H    -0.815000000    -7.061000000     2.927000000
O     0.183000000    -2.504000000     3.859000000
H    -0.196000000    -1.737000000     3.431000000
H     0.376000000    -3.108000000     3.141000000
O     1.601000000     4.955000000     1.615000000
H     1.108000000     5.276000000     0.860000000
H     2.469000000     5.347000000     1.518000000
O    -0.938000000    -6.163000000    -1.999000000
H    -1.580000000    -6.748000000    -1.597000000
H    -0.799000000    -5.476000000    -1.347000000
O    -1.554000000    -0.403000000     2.878000000
H    -1.889000000     0.346000000     3.371000000
H    -1.370000000    -0.054000000     2.006000000
O     3.232000000    -2.053000000     4.006000000
H     2.567000000    -2.670000000     4.313000000
H     2.824000000    -1.193000000     4.104000000
O     4.496000000    -2.650000000    -2.569000000
H     4.019000000    -3.001000000    -1.817000000
H     5.104000000    -3.348000000    -2.814000000
O    -3.094000000    -4.224000000    -1.838000000
H    -3.273000000    -3.442000000    -2.359000000
H    -2.387000000    -3.962000000    -1.248000000
O    -1.796000000     6.600000000    -1.879000000
H    -2.447000000     6.135000000    -1.353000000
H    -2.308000000     7.219000000    -2.400000000
O    -5.781000000     2.448000000     1.440000000
H    -6.429000000     3.153000000     1.412000000
H    -5.481000000     2.363000000     0.535000000
O     0.555000000     5.810000000    -0.686000000
H    -0.221000000     5.841000000    -1.246000000
H     1.162000000     6.434000000    -1.083000000
O     0.196000000     0.095000000    -4.131000000
H     0.458000000    -0.801000000    -4.342000000
H     0.935000000     0.634000000    -4.413000000
O    -2.397000000    -4.508000000     1.771000000
H    -2.032000000    -5.244000000     2.262000000
H    -1.738000000    -4.315000000     1.104000000
O     1.145000000    -6.553000000    -0.016000000
H     1.809000000    -7.144000000    -0.372000000
H     0.995000000    -5.914000000    -0.712000000
O    -1.064000000    -7.645000000     0.774000000
H    -0.257000000    -7.138000000     0.681000000
H    -0.839000000    -8.515000000     0.442000000
O    -0.714000000     4.125000000    -5.666000000
H    -1.190000000     4.811000000    -6.134000000
H    -1.375000000     3.707000000    -5.115000000
O    -4.932000000     1.760000000    -4.878000000
H    -4.957000000     1.495000000    -3.959000000
H    -4.419000000     1.077000000    -5.311000000
O     4.482000000    -0.125000000    -2.499000000
H     4.403000000    -1.068000000    -2.647000000
H     5.039000000    -0.050000000    -1.725000000
O     2.517000000    -5.168000000    -3.075000000
H     3.080000000    -4.487000000    -3.442000000
H     3.030000000    -5.972000000    -3.155000000
O    -2.402000000     0.098000000    -3.515000000
H    -1.467000000     0.056000000    -3.718000000
H    -2.553000000     1.012000000    -3.273000000
O    -2.886000000     1.826000000     2.879000000
H    -2.810000000     2.634000000     2.372000000
H    -3.750000000     1.481000000     2.653000000
O    -1.201000000     3.925000000     1.808000000
H    -0.880000000     4.209000000     2.663000000
H    -0.535000000     4.226000000     1.189000000
O    -4.695000000    -0.973000000    -0.294000000
H    -4.405000000    -1.524000000     0.432000000
H    -4.294000000    -1.366000000    -1.069000000
O     0.906000000     5.818000000    -4.286000000
H     0.299000000     5.140000000    -4.584000000
H     1.441000000     6.015000000    -5.055000000
O    -5.418000000    -4.834000000     1.855000000
H    -4.521000000    -4.717000000     1.544000000
H    -5.331000000    -5.371000000     2.642000000
O     2.575000000     1.421000000    -4.413000000
H     2.986000000     1.190000000    -3.580000000
H     2.884000000     2.308000000    -4.595000000
O    -3.713000000     5.082000000     3.211000000
H    -2.966000000     4.653000000     2.793000000
H    -4.332000000     5.234000000     2.497000000
O     2.549000000     6.952000000    -1.965000000
H     3.481000000     7.114000000    -2.115000000
H     2.198000000     6.754000000    -2.833000000
O     0.064000000    -3.502000000    -2.765000000
H    -0.176000000    -3.627000000    -1.846000000
H     0.859000000    -4.022000000    -2.878000000
O    -2.980000000    -6.208000000    -4.316000000
H    -2.688000000    -7.014000000    -4.741000000
H    -2.295000000    -6.012000000    -3.677000000
O    -3.062000000     3.633000000    -0.516000000
H    -3.621000000     4.285000000    -0.094000000
H    -2.359000000     3.476000000     0.114000000
O     2.938000000     2.449000000    -1.746000000
H     2.023000000     2.678000000    -1.583000000
H     3.015000000     1.544000000    -1.443000000
O     1.757000000     0.450000000     4.206000000
H     1.711000000     1.369000000     3.943000000
H     0.879000000     0.108000000     4.038000000
O     1.579000000    -5.302000000     2.589000000
H     1.307000000    -4.638000000     1.956000000
H     1.847000000    -6.048000000     2.053000000
O    -1.163000000    -2.724000000    -4.981000000
H    -0.927000000    -2.974000000    -4.087000000
H    -1.632000000    -1.896000000    -4.883000000
O     3.089000000    -4.952000000     4.612000000
H     3.877000000    -5.410000000     4.320000000
H     2.466000000    -5.066000000     3.894000000
O    -4.959000000     5.495000000     0.505000000
H    -5.703000000     5.239000000    -0.040000000
H    -4.795000000     6.409000000     0.273000000
O     2.897000000    -3.738000000    -0.711000000
H     2.829000000    -4.384000000    -1.414000000
H     2.133000000    -3.903000000    -0.159000000
O     4.614000000     3.050000000     0.773000000
H     3.894000000     2.825000000     0.184000000
H     5.101000000     3.730000000     0.308000000
O    -4.264000000    -1.985000000    -2.939000000
H    -3.751000000    -1.220000000    -3.198000000
H    -5.056000000    -1.935000000    -3.474000000
O    -5.588000000    -5.073000000    -2.050000000
H    -4.736000000    -4.682000000    -1.856000000
H    -5.614000000    -5.867000000    -1.516000000
O     4.642000000     0.935000000     3.244000000
H     3.965000000     1.504000000     2.879000000
H     4.989000000     0.459000000     2.489000000
O     4.458000000    -2.963000000     1.773000000
H     3.922000000    -2.748000000     2.536000000
H     3.824000000    -3.133000000     1.076000000
O    -2.336000000     3.050000000    -3.140000000
H    -2.783000000     3.812000000    -3.507000000
H    -2.249000000     3.248000000    -2.208000000
