158
-3055.43079
C     1.055000000    -0.547000000     0.827000000
H     1.922000000    -0.884000000     1.389000000
C     0.754000000     0.805000000     0.624000000
H     1.366000000     1.526000000     1.160000000
C    -0.238000000     1.194000000    -0.183000000
H    -0.373000000     2.284000000    -0.443000000
C    -0.925000000     0.224000000    -0.922000000
H    -1.650000000     0.523000000    -1.674000000
C    -0.719000000    -1.131000000    -0.727000000
H    -1.281000000    -1.883000000    -1.276000000
C     0.314000000    -1.516000000     0.169000000
C     0.366000000    -2.957000000     0.661000000
O     1.179000000    -3.357000000     1.528000000
O    -0.331000000    -3.774000000     0.086000000
O    -4.149000000     4.019000000    -1.483000000
H    -4.291000000     3.170000000    -1.901000000
H    -4.546000000     4.650000000    -2.084000000
O    -1.484000000     3.142000000     3.785000000
H    -1.317000000     2.227000000     3.562000000
H    -1.887000000     3.107000000     4.653000000
O     5.420000000     0.616000000    -1.392000000
H     5.358000000     0.543000000    -0.440000000
H     4.511000000     0.623000000    -1.692000000
O    -4.780000000    -2.015000000    -1.470000000
H    -4.566000000    -1.603000000    -0.633000000
H    -4.170000000    -2.750000000    -1.538000000
O     0.289000000    -4.439000000     3.793000000
H     0.743000000    -5.241000000     4.052000000
H     0.591000000    -4.271000000     2.900000000
O     2.255000000    -1.878000000     3.653000000
H     1.469000000    -1.704000000     4.172000000
H     1.974000000    -2.518000000     2.999000000
O     3.114000000     4.243000000     2.252000000
H     2.335000000     4.795000000     2.322000000
H     3.080000000     3.893000000     1.362000000
O    -4.666000000    -5.825000000    -0.943000000
H    -4.048000000    -5.207000000    -1.333000000
H    -5.087000000    -6.248000000    -1.691000000
O    -1.302000000    -7.633000000    -0.360000000
H    -0.990000000    -8.516000000    -0.159000000
H    -1.747000000    -7.723000000    -1.203000000
O    -1.313000000     0.441000000     3.485000000
H    -1.625000000    -0.169000000     4.153000000
H    -1.922000000     0.329000000     2.755000000
O     3.782000000     0.562000000     3.604000000
H     3.242000000    -0.214000000     3.451000000
H     4.155000000     0.426000000     4.475000000
O    -2.920000000    -3.867000000    -1.325000000
H    -2.487000000    -4.101000000    -2.146000000
H    -2.208000000    -3.798000000    -0.689000000
O    -5.137000000     2.881000000     0.917000000
H    -6.017000000     2.812000000     0.546000000
H    -4.643000000     3.386000000     0.271000000
O     4.942000000    -3.753000000     4.070000000
H     4.878000000    -2.803000000     4.168000000
H     4.545000000    -3.933000000     3.218000000
O     0.805000000     7.353000000    -0.295000000
H     0.219000000     8.108000000    -0.350000000
H     1.679000000     7.718000000    -0.436000000
O     2.992000000    -1.829000000    -1.506000000
H     2.553000000    -2.422000000    -2.116000000
H     3.690000000    -2.356000000    -1.118000000
O     1.347000000    -3.203000000    -4.312000000
H     2.217000000    -3.597000000    -4.375000000
H     1.409000000    -2.402000000    -4.834000000
O    -2.048000000    -3.805000000     2.372000000
H    -1.462000000    -4.167000000     3.037000000
H    -1.532000000    -3.818000000     1.566000000
O    -0.005000000    -6.134000000     1.493000000
H    -0.464000000    -6.653000000     0.834000000
H     0.171000000    -5.298000000     1.061000000
O     2.455000000    -7.198000000     1.216000000
H     2.530000000    -7.973000000     1.772000000
H     1.557000000    -6.893000000     1.350000000
O     2.956000000     3.448000000    -4.643000000
H     2.551000000     2.661000000    -5.006000000
H     2.248000000     3.884000000    -4.168000000
O    -0.357000000    -2.315000000     5.238000000
H    -1.295000000    -2.457000000     5.366000000
H    -0.078000000    -3.041000000     4.679000000
O    -4.138000000    -0.794000000    -3.898000000
H    -4.333000000    -1.197000000    -3.052000000
H    -3.497000000    -1.380000000    -4.300000000
O     3.269000000     3.124000000    -0.392000000
H     3.373000000     3.850000000    -1.006000000
H     3.048000000     2.373000000    -0.943000000
O     1.334000000    -0.595000000    -4.750000000
H     1.490000000    -0.181000000    -5.599000000
H     0.653000000    -0.058000000    -4.344000000
O    -1.856000000     3.603000000    -4.548000000
H    -1.041000000     4.079000000    -4.394000000
H    -2.515000000     4.287000000    -4.663000000
O    -4.857000000     2.817000000     3.578000000
H    -4.804000000     1.896000000     3.831000000
H    -5.030000000     2.797000000     2.636000000
O     0.174000000     1.616000000    -3.772000000
H    -0.617000000     1.696000000    -4.304000000
H     0.200000000     2.423000000    -3.257000000
O     1.147000000     6.264000000     2.310000000
H     0.906000000     6.992000000     2.883000000
H     1.094000000     6.627000000     1.426000000
O    -2.979000000     1.005000000     1.254000000
H    -2.104000000     1.018000000     0.864000000
H    -3.281000000     1.911000000     1.194000000
O    -1.607000000     4.826000000     1.666000000
H    -1.509000000     4.043000000     2.208000000
H    -0.854000000     5.371000000     1.893000000
O    -2.093000000    -2.551000000    -4.915000000
H    -1.340000000    -3.038000000    -4.578000000
H    -1.735000000    -2.014000000    -5.622000000
O    -3.248000000     7.036000000     0.831000000
H    -3.668000000     6.621000000     1.585000000
H    -2.470000000     6.502000000     0.666000000
O    -0.489000000    -4.126000000    -2.602000000
H    -0.272000000    -4.009000000    -1.677000000
H     0.238000000    -3.719000000    -3.073000000
O     3.242000000     5.071000000    -2.367000000
H     4.047000000     5.102000000    -2.884000000
H     2.924000000     5.974000000    -2.365000000
O    -1.344000000     4.712000000    -0.878000000
H    -2.292000000     4.690000000    -1.012000000
H    -1.229000000     4.511000000     0.051000000
O    -4.828000000    -3.980000000     1.971000000
H    -5.200000000    -3.423000000     1.287000000
H    -3.882000000    -3.930000000     1.832000000
O     0.972000000     1.267000000     5.428000000
H     1.230000000     1.422000000     4.519000000
H     1.335000000     0.407000000     5.637000000
O     2.788000000     1.017000000    -2.060000000
H     2.137000000     1.467000000    -2.598000000
H     2.357000000     0.205000000    -1.791000000
O     3.569000000    -4.626000000     1.689000000
H     2.686000000    -4.272000000     1.582000000
H     3.561000000    -5.443000000     1.191000000
O    -0.708000000    -5.537000000    -5.037000000
H    -0.672000000    -5.101000000    -4.186000000
H    -0.233000000    -6.358000000    -4.906000000
O     2.566000000    -6.010000000     4.888000000
H     2.836000000    -6.838000000     5.285000000
H     3.077000000    -5.953000000     4.081000000
O    -5.687000000     1.824000000    -2.261000000
H    -5.242000000     0.977000000    -2.227000000
H    -6.459000000     1.711000000    -1.707000000
O     4.706000000     1.487000000     1.192000000
H     4.336000000     1.297000000     2.055000000
H     4.097000000     2.115000000     0.804000000
O    -3.599000000    -4.879000000    -4.179000000
H    -4.519000000    -4.657000000    -4.319000000
H    -3.117000000    -4.113000000    -4.490000000
O    -4.857000000    -0.889000000     1.018000000
H    -4.034000000    -0.497000000     1.308000000
H    -5.530000000    -0.441000000     1.531000000
O     6.588000000    -1.438000000     2.965000000
H     5.950000000    -0.774000000     2.706000000
H     6.587000000    -2.066000000     2.242000000
O     0.374000000     4.121000000    -2.995000000
H     0.741000000     4.946000000    -3.312000000
H    -0.037000000     4.346000000    -2.160000000
