158
-3053.33927
C     0.513000000    -0.062000000     1.334000000
H     0.979000000    -0.011000000     2.315000000
C     0.785000000     0.858000000     0.384000000
H     1.512000000     1.639000000     0.592000000
C     0.184000000     0.853000000    -0.807000000
H     0.491000000     1.569000000    -1.518000000
C    -0.805000000    -0.077000000    -1.191000000
H    -1.322000000    -0.036000000    -2.147000000
C    -0.992000000    -1.079000000    -0.214000000
H    -1.625000000    -1.918000000    -0.492000000
C    -0.338000000    -1.111000000     1.022000000
C    -0.515000000    -2.311000000     2.038000000
O     0.163000000    -2.249000000     3.109000000
O    -1.199000000    -3.257000000     1.845000000
O     2.484000000     4.121000000     0.999000000
H     2.870000000     3.407000000     1.507000000
H     1.544000000     4.054000000     1.169000000
O     3.892000000     3.196000000    -1.627000000
H     3.757000000     3.832000000    -0.924000000
H     4.152000000     2.393000000    -1.176000000
O    -0.073000000     3.689000000     1.661000000
H    -0.729000000     2.993000000     1.692000000
H    -0.561000000     4.487000000     1.865000000
O    -1.092000000     1.451000000     4.215000000
H    -1.202000000     2.394000000     4.091000000
H    -1.138000000     1.086000000     3.332000000
O     5.449000000     3.572000000    -3.628000000
H     5.026000000     3.618000000    -2.770000000
H     4.861000000     3.031000000    -4.156000000
O    -2.733000000     5.342000000    -1.454000000
H    -1.834000000     5.272000000    -1.132000000
H    -3.037000000     4.436000000    -1.511000000
O    -0.801000000    -6.218000000     6.510000000
H    -0.990000000    -5.407000000     6.039000000
H    -1.260000000    -6.896000000     6.013000000
O     4.387000000    -2.163000000     5.679000000
H     3.904000000    -1.956000000     4.879000000
H     5.271000000    -2.375000000     5.377000000
O     6.326000000     3.026000000     1.973000000
H     6.721000000     2.310000000     1.476000000
H     5.511000000     3.218000000     1.510000000
O     1.570000000     3.787000000    -3.176000000
H     1.558000000     3.495000000    -4.088000000
H     2.412000000     3.484000000    -2.838000000
O    -1.087000000    -7.849000000     0.121000000
H    -1.857000000    -8.262000000    -0.271000000
H    -1.444000000    -7.168000000     0.691000000
O    -0.123000000     4.272000000    -1.195000000
H     0.043000000     4.174000000    -0.258000000
H     0.693000000     3.997000000    -1.613000000
O    -3.936000000    -2.259000000     2.159000000
H    -4.138000000    -2.973000000     2.764000000
H    -2.988000000    -2.308000000     2.039000000
O     1.177000000     3.900000000    -5.949000000
H     1.814000000     3.644000000    -6.616000000
H     0.332000000     3.628000000    -6.308000000
O    -6.394000000    -2.145000000    -0.826000000
H    -5.650000000    -2.745000000    -0.781000000
H    -6.404000000    -1.843000000    -1.734000000
O    -2.507000000    -6.164000000     1.811000000
H    -3.344000000    -5.899000000     2.193000000
H    -1.984000000    -5.362000000     1.800000000
O     2.551000000    -1.378000000    -1.125000000
H     2.144000000    -1.996000000    -1.733000000
H     1.830000000    -1.077000000    -0.572000000
O     0.880000000    -3.083000000    -2.522000000
H     0.379000000    -3.490000000    -1.815000000
H     1.535000000    -3.740000000    -2.761000000
O     0.410000000    -2.348000000    -4.983000000
H     1.047000000    -2.898000000    -5.439000000
H     0.456000000    -2.635000000    -4.071000000
O    -6.102000000    -0.876000000     1.423000000
H    -6.277000000    -1.199000000     0.539000000
H    -5.370000000    -1.409000000     1.732000000
O    -0.373000000    -4.474000000    -0.339000000
H    -0.052000000    -5.129000000     0.282000000
H    -0.835000000    -3.835000000     0.204000000
O    -2.258000000     0.937000000    -5.130000000
H    -2.294000000    -0.012000000    -5.008000000
H    -3.046000000     1.264000000    -4.696000000
O     4.665000000     1.414000000    -5.133000000
H     4.090000000     1.676000000    -5.852000000
H     4.663000000     0.457000000    -5.162000000
O     3.225000000    -3.102000000     1.165000000
H     3.019000000    -2.475000000     0.472000000
H     4.116000000    -3.392000000     0.969000000
O    -2.431000000    -5.365000000    -2.000000000
H    -1.743000000    -5.224000000    -1.351000000
H    -2.026000000    -5.928000000    -2.660000000
O    -4.915000000     1.166000000    -0.601000000
H    -4.932000000     0.964000000    -1.537000000
H    -5.391000000     0.443000000    -0.192000000
O    -2.263000000    -2.027000000    -5.045000000
H    -1.320000000    -2.183000000    -4.990000000
H    -2.523000000    -2.417000000    -5.880000000
O    -4.301000000    -1.959000000    -3.315000000
H    -4.529000000    -2.799000000    -2.917000000
H    -3.468000000    -2.121000000    -3.756000000
O     3.413000000     6.348000000    -0.424000000
H     2.954000000     5.805000000     0.217000000
H     2.886000000     6.276000000    -1.220000000
O     1.486000000     6.503000000    -2.463000000
H     1.430000000     7.124000000    -3.190000000
H     1.445000000     5.642000000    -2.880000000
O    -2.023000000     6.808000000    -3.893000000
H    -2.234000000     7.597000000    -3.393000000
H    -2.075000000     6.098000000    -3.253000000
O     4.689000000     0.917000000    -0.168000000
H     5.532000000     0.589000000     0.145000000
H     4.490000000     0.376000000    -0.932000000
O    -1.116000000    -0.966000000     5.559000000
H    -1.089000000    -0.053000000     5.272000000
H    -0.722000000    -1.456000000     4.837000000
O     0.458000000     0.359000000    -6.144000000
H    -0.177000000     0.802000000    -5.581000000
H     0.566000000    -0.506000000    -5.748000000
O     0.342000000    -1.822000000     7.750000000
H    -0.314000000    -1.240000000     7.366000000
H     0.751000000    -2.251000000     6.998000000
O     1.509000000    -5.117000000     1.722000000
H     2.193000000    -4.453000000     1.632000000
H     0.778000000    -4.652000000     2.130000000
O     2.368000000     3.300000000     5.302000000
H     3.224000000     3.724000000     5.251000000
H     2.291000000     2.814000000     4.481000000
O     0.877000000    -3.391000000     5.612000000
H     0.842000000    -3.003000000     4.738000000
H     1.434000000    -4.163000000     5.509000000
O    -2.163000000    -4.391000000     4.843000000
H    -1.674000000    -3.883000000     4.196000000
H    -2.319000000    -3.778000000     5.561000000
O    -3.351000000     2.997000000    -2.035000000
H    -3.922000000     2.907000000    -1.272000000
H    -3.690000000     2.360000000    -2.664000000
O    -4.343000000     0.891000000    -3.309000000
H    -4.082000000    -0.029000000    -3.341000000
H    -5.089000000     0.950000000    -3.907000000
O    -1.867000000     1.664000000     1.514000000
H    -2.791000000     1.874000000     1.379000000
H    -1.692000000     0.946000000     0.906000000
O    -4.284000000    -3.924000000    -0.603000000
H    -3.563000000    -4.302000000    -1.107000000
H    -4.651000000    -4.663000000    -0.119000000
O     3.436000000     2.022000000     3.133000000
H     4.278000000     1.779000000     3.518000000
H     3.063000000     1.194000000     2.831000000
O     2.992000000    -1.325000000     3.356000000
H     2.064000000    -1.495000000     3.518000000
H     3.234000000    -1.954000000     2.676000000
O    -1.582000000     3.642000000    -4.035000000
H    -2.127000000     3.596000000    -3.249000000
H    -0.697000000     3.796000000    -3.704000000
O    -1.614000000     3.618000000    -6.695000000
H    -1.683000000     3.405000000    -5.764000000
H    -1.813000000     4.554000000    -6.741000000
O    -3.502000000    -2.071000000     6.031000000
H    -4.018000000    -1.325000000     5.725000000
H    -2.593000000    -1.806000000     5.895000000
