158
-3035.34567
C     0.600000000    -0.834000000     1.103000000
H     1.150000000    -1.411000000     1.842000000
C     1.247000000     0.145000000     0.371000000
H     2.265000000     0.470000000     0.571000000
C     0.551000000     0.936000000    -0.586000000
H     1.064000000     1.774000000    -1.060000000
C    -0.832000000     0.680000000    -0.843000000
H    -1.421000000     1.281000000    -1.532000000
C    -1.430000000    -0.421000000    -0.168000000
H    -2.481000000    -0.625000000    -0.360000000
C    -0.714000000    -1.203000000     0.730000000
C    -1.374000000    -2.279000000     1.521000000
O    -0.935000000    -2.607000000     2.585000000
O    -2.399000000    -2.798000000     1.078000000
O     1.309000000     3.705000000     1.025000000
H     1.501000000     2.822000000     1.340000000
H     1.569000000     4.278000000     1.745000000
O     4.218000000     4.005000000    -0.437000000
H     5.067000000     3.865000000    -0.019000000
H     3.592000000     3.563000000     0.137000000
O    -2.325000000     0.393000000     4.159000000
H    -2.293000000     1.045000000     3.459000000
H    -2.110000000     0.883000000     4.953000000
O    -2.036000000    -2.041000000     5.464000000
H    -2.227000000    -1.228000000     4.998000000
H    -1.626000000    -2.604000000     4.807000000
O    -2.159000000     1.863000000     1.824000000
H    -2.950000000     1.823000000     1.286000000
H    -1.475000000     1.485000000     1.272000000
O     4.140000000     0.796000000    -3.119000000
H     3.463000000     0.147000000    -3.311000000
H     4.460000000     0.558000000    -2.249000000
O    -3.274000000     3.259000000    -1.222000000
H    -3.510000000     2.638000000    -1.912000000
H    -4.107000000     3.487000000    -0.810000000
O    -2.089000000    -7.452000000     4.003000000
H    -1.410000000    -7.107000000     3.422000000
H    -2.646000000    -6.697000000     4.195000000
O    -4.637000000     0.913000000     0.588000000
H    -5.198000000     0.337000000     1.108000000
H    -4.819000000     0.667000000    -0.319000000
O    -3.689000000    -5.343000000     0.973000000
H    -4.616000000    -5.122000000     1.065000000
H    -3.239000000    -4.498000000     0.986000000
O    -3.457000000     1.533000000    -3.502000000
H    -2.833000000     0.888000000    -3.835000000
H    -3.905000000     1.860000000    -4.283000000
O    -6.602000000    -4.619000000     1.905000000
H    -7.438000000    -4.797000000     1.472000000
H    -6.832000000    -4.070000000     2.654000000
O    -5.268000000     2.408000000     2.960000000
H    -4.738000000     1.974000000     2.291000000
H    -4.686000000     2.479000000     3.717000000
O    -4.978000000    -1.194000000     4.086000000
H    -5.280000000    -1.050000000     3.189000000
H    -4.272000000    -0.558000000     4.206000000
O    -0.465000000    -4.161000000    -0.664000000
H    -1.037000000    -3.759000000    -0.009000000
H    -1.045000000    -4.728000000    -1.172000000
O    -2.789000000     6.343000000    -1.102000000
H    -2.727000000     6.549000000    -2.035000000
H    -2.707000000     5.390000000    -1.062000000
O     1.183000000     1.620000000     4.220000000
H     1.486000000     0.753000000     3.949000000
H     1.926000000     2.198000000     4.048000000
O     4.120000000    -1.757000000     0.923000000
H     4.994000000    -1.751000000     0.533000000
H     3.554000000    -2.108000000     0.236000000
O    -0.257000000    -2.023000000    -3.610000000
H    -1.187000000    -1.892000000    -3.424000000
H    -0.197000000    -2.933000000    -3.902000000
O    -7.172000000    -3.251000000    -1.141000000
H    -6.216000000    -3.291000000    -1.115000000
H    -7.424000000    -3.929000000    -1.767000000
O     2.266000000    -3.542000000    -0.874000000
H     2.520000000    -2.775000000    -1.387000000
H     1.311000000    -3.567000000    -0.937000000
O    -1.066000000     3.388000000     3.968000000
H    -0.582000000     2.699000000     4.424000000
H    -1.352000000     2.978000000     3.151000000
O    -0.357000000    -0.260000000    -5.997000000
H     0.594000000    -0.203000000    -5.909000000
H    -0.613000000    -0.950000000    -5.384000000
O     4.268000000     3.574000000    -3.116000000
H     4.112000000     3.817000000    -2.203000000
H     4.246000000     2.617000000    -3.117000000
O    -2.216000000     4.795000000    -5.394000000
H    -2.880000000     4.196000000    -5.736000000
H    -1.512000000     4.224000000    -5.089000000
O     2.059000000    -4.615000000     5.078000000
H     1.964000000    -5.013000000     5.944000000
H     1.461000000    -5.112000000     4.520000000
O    -4.406000000    -2.694000000    -0.759000000
H    -4.368000000    -1.903000000    -1.297000000
H    -3.634000000    -2.637000000    -0.195000000
O     1.951000000    -1.134000000    -2.341000000
H     1.552000000    -0.571000000    -1.677000000
H     1.219000000    -1.632000000    -2.705000000
O     2.291000000     5.740000000    -3.941000000
H     2.964000000     5.098000000    -3.716000000
H     1.645000000     5.244000000    -4.444000000
O     0.091000000     6.490000000    -1.014000000
H    -0.188000000     5.618000000    -1.295000000
H    -0.230000000     6.566000000    -0.115000000
O    -0.357000000     3.822000000    -1.324000000
H     0.167000000     3.878000000    -0.525000000
H    -0.935000000     3.073000000    -1.180000000
O     2.741000000    -0.541000000    -5.658000000
H     3.471000000    -0.510000000    -6.276000000
H     2.476000000    -1.461000000    -5.646000000
O     2.964000000     6.518000000    -0.775000000
H     3.253000000     5.647000000    -0.501000000
H     2.045000000     6.401000000    -1.013000000
O     3.491000000    -0.721000000     3.412000000
H     3.547000000    -1.148000000     2.557000000
H     2.658000000    -1.021000000     3.776000000
O     4.219000000     2.219000000     1.915000000
H     4.488000000     1.517000000     2.507000000
H     4.383000000     3.024000000     2.406000000
O     2.339000000     2.375000000    -5.099000000
H     2.350000000     1.485000000    -5.452000000
H     3.097000000     2.411000000    -4.516000000
O    -6.089000000    -1.208000000     1.484000000
H    -5.994000000    -2.138000000     1.690000000
H    -6.762000000    -1.181000000     0.803000000
O     2.123000000    -0.396000000     6.447000000
H     3.031000000    -0.552000000     6.189000000
H     1.603000000    -0.850000000     5.783000000
O    -0.118000000    -4.966000000     3.405000000
H     0.038000000    -5.597000000     2.703000000
H    -0.490000000    -4.203000000     2.963000000
O    -3.277000000    -5.043000000     4.613000000
H    -3.388000000    -4.623000000     3.760000000
H    -3.116000000    -4.319000000     5.218000000
O    -4.963000000    -0.407000000    -2.022000000
H    -5.200000000    -1.185000000    -2.527000000
H    -4.533000000     0.168000000    -2.655000000
O     5.098000000     0.798000000    -0.673000000
H     5.816000000     0.205000000    -0.454000000
H     5.160000000     1.500000000    -0.026000000
O     0.042000000     3.906000000    -3.995000000
H     0.563000000     3.112000000    -4.118000000
H    -0.018000000     4.007000000    -3.045000000
O    -3.041000000    -1.403000000    -4.337000000
H    -3.857000000    -1.809000000    -4.043000000
H    -3.079000000    -1.452000000    -5.292000000
O    -4.344000000    -6.177000000    -1.632000000
H    -5.198000000    -6.546000000    -1.406000000
H    -3.986000000    -5.872000000    -0.798000000
O     1.211000000    -2.082000000     4.571000000
H     0.666000000    -2.164000000     3.789000000
H     1.552000000    -2.964000000     4.719000000
O     0.272000000    -6.859000000     1.124000000
H     1.113000000    -7.217000000     0.840000000
H    -0.157000000    -6.582000000     0.315000000
O    -3.751000000    -3.058000000     7.052000000
H    -3.226000000    -3.434000000     7.759000000
H    -3.122000000    -2.570000000     6.520000000
