158
-3047.06604
C    -0.059000000    -1.265000000     0.852000000
H    -0.174000000    -2.195000000     1.402000000
C    -0.985000000    -0.233000000     0.860000000
H    -1.817000000    -0.339000000     1.552000000
C    -0.834000000     0.915000000     0.075000000
H    -1.510000000     1.670000000     0.064000000
C     0.234000000     1.007000000    -0.806000000
H     0.366000000     1.852000000    -1.477000000
C     1.203000000    -0.007000000    -0.742000000
H     1.984000000     0.079000000    -1.493000000
C     1.080000000    -1.158000000     0.057000000
C     2.051000000    -2.246000000    -0.125000000
O     3.096000000    -1.968000000    -0.677000000
O     1.791000000    -3.454000000     0.071000000
O    -6.029000000     2.788000000     3.492000000
H    -5.792000000     2.853000000     2.567000000
H    -5.431000000     2.131000000     3.847000000
O     2.808000000    -1.948000000    -3.452000000
H     2.768000000    -2.187000000    -2.526000000
H     2.299000000    -1.139000000    -3.513000000
O    -3.085000000    -1.389000000     3.951000000
H    -2.143000000    -1.521000000     3.848000000
H    -3.277000000    -1.708000000     4.833000000
O     1.980000000     3.328000000    -3.391000000
H     2.084000000     2.405000000    -3.623000000
H     2.873000000     3.673000000    -3.375000000
O    -3.613000000     1.078000000     2.665000000
H    -3.897000000     0.877000000     1.773000000
H    -3.637000000     0.235000000     3.119000000
O     3.515000000     3.678000000     0.687000000
H     4.037000000     4.065000000     1.390000000
H     3.928000000     2.830000000     0.523000000
O    -1.382000000    -1.393000000    -2.264000000
H    -1.042000000    -0.754000000    -1.638000000
H    -2.332000000    -1.290000000    -2.219000000
O     3.052000000    -8.572000000     0.542000000
H     2.195000000    -8.428000000     0.139000000
H     3.395000000    -7.691000000     0.695000000
O    -4.456000000     6.069000000     1.450000000
H    -4.714000000     6.987000000     1.540000000
H    -4.254000000     5.789000000     2.342000000
O     2.098000000    -2.595000000     2.903000000
H     2.517000000    -3.254000000     3.457000000
H     2.204000000    -2.928000000     2.012000000
O    -0.261000000    -1.570000000     4.323000000
H     0.502000000    -1.148000000     4.718000000
H     0.100000000    -2.308000000     3.832000000
O    -2.671000000     2.291000000    -2.473000000
H    -3.351000000     2.450000000    -1.818000000
H    -3.137000000     1.899000000    -3.211000000
O     5.544000000    -1.568000000    -4.878000000
H     6.349000000    -1.913000000    -4.491000000
H     4.841000000    -1.993000000    -4.388000000
O    -0.456000000    -4.491000000     5.351000000
H     0.029000000    -3.779000000     5.767000000
H     0.182000000    -4.911000000     4.775000000
O     3.633000000     0.576000000     2.004000000
H     3.542000000    -0.377000000     1.993000000
H     4.367000000     0.754000000     1.416000000
O    -3.077000000     5.067000000    -3.617000000
H    -2.184000000     4.723000000    -3.598000000
H    -3.487000000     4.715000000    -2.827000000
O     0.702000000    -7.398000000     1.905000000
H     1.142000000    -6.552000000     1.820000000
H     0.680000000    -7.747000000     1.014000000
O    -6.450000000     1.550000000    -2.536000000
H    -6.499000000     2.336000000    -3.081000000
H    -5.971000000     0.917000000    -3.071000000
O     1.485000000     5.631000000     1.370000000
H     1.557000000     6.322000000     0.711000000
H     1.975000000     4.896000000     1.001000000
O    -4.330000000     5.029000000    -1.166000000
H    -4.072000000     5.580000000    -0.427000000
H    -5.186000000     5.366000000    -1.429000000
O     3.533000000    -5.918000000     0.107000000
H     4.404000000    -5.616000000     0.364000000
H     2.952000000    -5.190000000     0.326000000
O     5.445000000    -3.311000000    -1.044000000
H     5.734000000    -3.863000000    -0.317000000
H     4.612000000    -2.943000000    -0.748000000
O    -7.057000000    -0.969000000     1.711000000
H    -6.286000000    -1.441000000     1.394000000
H    -6.841000000    -0.045000000     1.584000000
O    -0.507000000    -6.473000000    -2.624000000
H    -0.490000000    -5.806000000    -1.938000000
H    -0.085000000    -6.055000000    -3.375000000
O     7.325000000    -1.529000000    -2.404000000
H     7.457000000    -2.310000000    -1.866000000
H     6.442000000    -1.233000000    -2.185000000
O    -0.474000000    -4.274000000    -1.165000000
H    -0.966000000    -3.455000000    -1.234000000
H     0.254000000    -4.067000000    -0.579000000
O    -0.562000000     4.154000000    -3.129000000
H    -1.088000000     3.411000000    -2.830000000
H     0.324000000     3.802000000    -3.214000000
O    -5.723000000     3.648000000     1.027000000
H    -5.267000000     3.497000000     0.200000000
H    -5.496000000     4.547000000     1.265000000
O     2.777000000    -6.594000000    -2.613000000
H     3.095000000    -6.154000000    -1.824000000
H     2.949000000    -5.973000000    -3.320000000
O    -1.868000000     0.595000000     5.653000000
H    -1.856000000    -0.074000000     4.969000000
H    -1.159000000     1.193000000     5.417000000
O    -3.032000000    -3.350000000     1.856000000
H    -3.054000000    -4.135000000     2.403000000
H    -2.909000000    -2.630000000     2.475000000
O     2.765000000     0.751000000    -4.752000000
H     3.689000000     0.629000000    -4.968000000
H     2.293000000     0.321000000    -5.465000000
O     0.105000000     2.366000000     5.065000000
H     0.168000000     3.306000000     4.897000000
H     0.635000000     1.964000000     4.377000000
O    -1.334000000     4.228000000     0.805000000
H    -1.421000000     3.709000000     0.005000000
H    -0.506000000     4.697000000     0.698000000
O     5.568000000    -4.357000000    -3.762000000
H     6.465000000    -4.692000000    -3.751000000
H     5.303000000    -4.352000000    -2.842000000
O    -4.140000000     0.768000000    -4.379000000
H    -3.716000000     0.191000000    -5.013000000
H    -4.121000000     1.632000000    -4.791000000
O    -4.525000000     5.544000000     4.157000000
H    -5.193000000     5.107000000     4.685000000
H    -3.744000000     5.000000000     4.260000000
O     4.833000000    -0.356000000    -1.803000000
H     4.351000000    -0.152000000    -2.605000000
H     4.265000000    -0.965000000    -1.331000000
O    -0.559000000    -2.407000000    -5.079000000
H    -0.802000000    -2.221000000    -4.172000000
H    -1.304000000    -2.895000000    -5.431000000
O    -4.232000000    -1.191000000    -1.674000000
H    -4.736000000    -1.258000000    -2.485000000
H    -4.291000000    -2.063000000    -1.284000000
O    -2.512000000     3.611000000     3.423000000
H    -2.459000000     2.695000000     3.148000000
H    -2.046000000     4.093000000     2.739000000
O    -2.886000000    -5.074000000     4.079000000
H    -2.025000000    -4.934000000     4.473000000
H    -3.475000000    -4.516000000     4.586000000
O    -5.498000000    -2.983000000     0.663000000
H    -4.650000000    -2.806000000     1.070000000
H    -5.375000000    -3.814000000     0.204000000
O    -5.043000000     0.642000000     0.460000000
H    -5.828000000     1.068000000     0.115000000
H    -4.639000000     0.230000000    -0.304000000
O     1.034000000     1.055000000     3.002000000
H     0.381000000     0.830000000     2.339000000
H     1.851000000     1.144000000     2.513000000
O     4.328000000     4.919000000    -1.802000000
H     3.890000000     4.334000000    -1.184000000
H     5.261000000     4.759000000    -1.663000000
O     5.399000000     1.165000000     0.096000000
H     5.542000000     0.423000000    -0.492000000
H     6.000000000     1.840000000    -0.218000000
O     3.046000000    -4.635000000    -4.541000000
H     2.942000000    -3.699000000    -4.368000000
H     3.993000000    -4.764000000    -4.598000000
