158
-3033.51346
C    -0.034000000    -0.346000000     1.414000000
H     0.117000000    -0.522000000     2.476000000
C     0.976000000     0.445000000     0.793000000
H     1.753000000     0.956000000     1.357000000
C     0.876000000     0.673000000    -0.613000000
H     1.641000000     1.236000000    -1.102000000
C    -0.214000000     0.111000000    -1.253000000
H    -0.355000000     0.490000000    -2.262000000
C    -1.147000000    -0.743000000    -0.580000000
H    -2.050000000    -1.051000000    -1.100000000
C    -1.044000000    -0.927000000     0.783000000
C    -2.062000000    -1.678000000     1.598000000
O    -2.106000000    -1.567000000     2.816000000
O    -2.735000000    -2.506000000     1.012000000
O    -2.601000000     1.724000000     0.339000000
H    -3.301000000     1.814000000    -0.307000000
H    -1.837000000     1.454000000    -0.171000000
O     0.112000000     4.557000000    -0.162000000
H     0.276000000     5.482000000     0.021000000
H    -0.501000000     4.282000000     0.520000000
O     7.170000000     3.696000000    -2.402000000
H     7.685000000     4.503000000    -2.409000000
H     6.438000000     3.884000000    -1.816000000
O    -4.119000000     1.476000000     4.624000000
H    -4.517000000     1.329000000     5.482000000
H    -3.431000000     0.814000000     4.562000000
O    -0.524000000    -2.458000000     4.927000000
H    -0.177000000    -3.298000000     4.626000000
H    -1.290000000    -2.303000000     4.373000000
O     4.867000000     0.338000000    -4.798000000
H     4.564000000    -0.505000000    -4.462000000
H     4.097000000     0.904000000    -4.752000000
O    -5.106000000     1.127000000     1.967000000
H    -4.323000000     1.396000000     1.486000000
H    -4.985000000     1.491000000     2.844000000
O    -0.074000000     3.090000000    -6.278000000
H    -0.072000000     2.276000000    -5.774000000
H    -0.418000000     2.840000000    -7.135000000
O    -3.251000000    -4.360000000     3.206000000
H    -3.808000000    -3.895000000     3.830000000
H    -3.078000000    -3.720000000     2.515000000
O    -3.810000000     2.117000000    -2.140000000
H    -4.519000000     1.483000000    -2.029000000
H    -3.249000000     1.732000000    -2.814000000
O    -7.713000000    -2.686000000    -0.108000000
H    -6.878000000    -2.574000000     0.347000000
H    -7.707000000    -2.014000000    -0.789000000
O    -4.395000000    -2.015000000     4.000000000
H    -3.500000000    -1.812000000     3.726000000
H    -4.920000000    -1.289000000     3.664000000
O    -3.040000000    -3.822000000    -1.232000000
H    -3.027000000    -3.377000000    -0.385000000
H    -3.961000000    -3.810000000    -1.495000000
O     3.609000000    -2.187000000    -4.240000000
H     2.778000000    -1.731000000    -4.371000000
H     3.432000000    -2.809000000    -3.534000000
O    -1.379000000     0.468000000     4.638000000
H    -1.660000000    -0.079000000     3.905000000
H    -0.540000000     0.833000000     4.356000000
O     0.735000000    -4.810000000     3.761000000
H     1.546000000    -4.838000000     3.253000000
H     0.237000000    -5.571000000     3.461000000
O    -0.863000000    -3.864000000    -2.748000000
H    -1.614000000    -3.563000000    -2.236000000
H    -1.236000000    -4.471000000    -3.387000000
O     4.389000000    -0.395000000     1.326000000
H     4.580000000     0.190000000     0.593000000
H     4.586000000     0.125000000     2.105000000
O    -2.071000000     3.406000000     4.558000000
H    -2.707000000     2.694000000     4.496000000
H    -1.443000000     3.110000000     5.216000000
O    -2.512000000     0.922000000    -4.464000000
H    -1.562000000     0.901000000    -4.576000000
H    -2.740000000     0.036000000    -4.182000000
O     3.779000000    -3.287000000     1.957000000
H     3.596000000    -2.427000000     1.577000000
H     4.279000000    -3.746000000     1.282000000
O     5.171000000     0.941000000    -1.466000000
H     5.366000000     0.826000000    -2.396000000
H     6.029000000     1.023000000    -1.050000000
O    -2.862000000     4.633000000    -2.199000000
H    -3.315000000     3.793000000    -2.276000000
H    -3.108000000     4.958000000    -1.333000000
O    -6.031000000    -5.555000000     1.693000000
H    -5.223000000    -5.088000000     1.478000000
H    -5.740000000    -6.322000000     2.186000000
O     1.416000000    -2.656000000    -1.892000000
H     1.156000000    -1.989000000    -1.256000000
H     0.589000000    -3.008000000    -2.222000000
O    -6.071000000    -2.773000000     6.101000000
H    -5.383000000    -2.755000000     5.436000000
H    -6.695000000    -3.426000000     5.782000000
O     0.336000000     0.672000000    -4.913000000
H     0.926000000     1.007000000    -4.238000000
H     0.544000000    -0.260000000    -4.972000000
O     0.982000000     1.823000000     3.981000000
H     1.089000000     2.580000000     3.405000000
H     1.603000000     1.177000000     3.644000000
O     1.941000000     5.298000000    -2.264000000
H     1.116000000     5.195000000    -1.790000000
H     2.562000000     4.750000000    -1.784000000
O     5.786000000     5.146000000    -0.114000000
H     5.273000000     5.095000000     0.692000000
H     6.469000000     5.789000000     0.076000000
O     2.127000000     1.583000000    -7.389000000
H     2.154000000     0.713000000    -7.786000000
H     1.732000000     1.443000000    -6.529000000
O     6.345000000    -2.062000000     0.127000000
H     7.200000000    -2.042000000     0.557000000
H     5.871000000    -1.320000000     0.501000000
O     2.718000000    -0.949000000     3.977000000
H     3.611000000    -0.668000000     4.176000000
H     2.798000000    -1.446000000     3.163000000
O    -0.029000000     3.035000000    -2.656000000
H    -0.089000000     3.889000000    -3.084000000
H    -0.020000000     3.236000000    -1.720000000
O     1.197000000    -1.612000000    -6.017000000
H     1.450000000    -1.706000000    -6.935000000
H     0.960000000    -2.498000000    -5.742000000
O     1.994000000    -4.963000000    -0.199000000
H     1.445000000    -4.233000000    -0.485000000
H     1.467000000    -5.416000000     0.459000000
O    -0.678000000    -5.983000000     0.314000000
H    -0.795000000    -6.754000000    -0.242000000
H    -1.238000000    -5.316000000    -0.083000000
O    -5.419000000    -1.745000000     1.113000000
H    -5.432000000    -0.794000000     1.217000000
H    -4.503000000    -1.988000000     1.244000000
O     2.406000000     1.972000000    -4.028000000
H     3.164000000     2.474000000    -3.729000000
H     1.676000000     2.309000000    -3.509000000
O     5.483000000     0.231000000     3.686000000
H     5.208000000     1.107000000     3.956000000
H     6.335000000     0.365000000     3.270000000
O     3.864000000     3.511000000    -1.561000000
H     4.143000000     2.596000000    -1.514000000
H     4.544000000     3.992000000    -1.089000000
O    -5.293000000     0.075000000    -1.720000000
H    -6.224000000    -0.143000000    -1.676000000
H    -4.848000000    -0.772000000    -1.711000000
O     1.474000000     4.189000000     2.409000000
H     1.793000000     5.038000000     2.717000000
H     1.230000000     4.342000000     1.496000000
O     1.057000000    -0.701000000     6.102000000
H     0.273000000    -1.194000000     5.858000000
H     1.580000000    -0.672000000     5.301000000
O    -2.088000000     4.117000000     1.802000000
H    -1.957000000     3.813000000     2.701000000
H    -2.446000000     3.358000000     1.342000000
O     4.390000000     2.635000000     4.202000000
H     4.326000000     2.885000000     5.124000000
H     4.479000000     3.466000000     3.734000000
O    -3.519000000    -1.678000000    -4.116000000
H    -4.419000000    -1.413000000    -4.305000000
H    -3.580000000    -2.612000000    -3.919000000
O    -1.555000000    -6.530000000     3.734000000
H    -2.194000000    -5.966000000     3.298000000
H    -1.532000000    -6.213000000     4.637000000
