158
-3041.67198
C    -0.082000000     0.079000000     1.469000000
H    -0.173000000     0.253000000     2.539000000
C     0.643000000     0.957000000     0.725000000
H     1.213000000     1.741000000     1.216000000
C     0.781000000     0.711000000    -0.653000000
H     1.538000000     1.309000000    -1.240000000
C     0.029000000    -0.326000000    -1.248000000
H    -0.053000000    -0.465000000    -2.323000000
C    -0.673000000    -1.192000000    -0.467000000
H    -1.258000000    -1.957000000    -0.970000000
C    -0.786000000    -1.021000000     0.924000000
C    -1.673000000    -1.947000000     1.682000000
O    -1.969000000    -1.624000000     2.791000000
O    -2.051000000    -2.892000000     1.002000000
O     4.066000000     2.880000000    -4.335000000
H     4.188000000     3.757000000    -4.700000000
H     3.118000000     2.754000000    -4.328000000
O     0.264000000     6.377000000    -3.599000000
H     0.748000000     5.727000000    -3.089000000
H    -0.503000000     5.905000000    -3.922000000
O    -2.904000000    -4.780000000     6.979000000
H    -3.433000000    -5.576000000     6.926000000
H    -2.877000000    -4.449000000     6.082000000
O     3.570000000     5.396000000     3.784000000
H     3.914000000     4.655000000     3.285000000
H     2.620000000     5.290000000     3.745000000
O     1.126000000     4.933000000     3.374000000
H     0.699000000     4.076000000     3.390000000
H     0.780000000     5.387000000     4.143000000
O    -1.885000000     4.197000000    -3.824000000
H    -1.642000000     3.326000000    -3.508000000
H    -2.481000000     4.535000000    -3.156000000
O    -3.387000000    -3.398000000     4.420000000
H    -2.880000000    -2.833000000     3.836000000
H    -4.129000000    -2.857000000     4.691000000
O    -0.294000000     2.791000000     4.300000000
H     0.140000000     2.781000000     5.153000000
H    -0.634000000     1.903000000     4.194000000
O    -1.086000000     3.548000000    -0.083000000
H    -0.231000000     3.642000000     0.336000000
H    -1.625000000     4.230000000     0.318000000
O    -1.732000000     1.995000000    -2.509000000
H    -2.426000000     1.337000000    -2.483000000
H    -1.391000000     2.019000000    -1.615000000
O    -5.002000000    -1.395000000    -3.611000000
H    -4.498000000    -0.841000000    -4.206000000
H    -4.675000000    -2.280000000    -3.773000000
O    -2.283000000     2.164000000    -5.469000000
H    -2.053000000     2.940000000    -4.958000000
H    -2.392000000     2.489000000    -6.362000000
O    -5.416000000    -2.601000000     1.552000000
H    -4.547000000    -2.471000000     1.172000000
H    -5.390000000    -3.488000000     1.911000000
O     4.257000000     1.987000000     4.087000000
H     4.833000000     2.603000000     3.632000000
H     4.045000000     1.326000000     3.428000000
O     0.961000000     3.938000000    -2.351000000
H     0.392000000     3.884000000    -1.584000000
H     0.773000000     3.140000000    -2.845000000
O     1.451000000     4.852000000     0.720000000
H     1.584000000     4.877000000     1.667000000
H     1.644000000     5.742000000     0.426000000
O     1.891000000    -6.294000000     1.707000000
H     1.251000000    -5.585000000     1.643000000
H     2.335000000    -6.143000000     2.541000000
O    -1.509000000    -7.363000000    -0.811000000
H    -2.071000000    -6.669000000    -0.468000000
H    -1.913000000    -8.174000000    -0.500000000
O    -3.140000000     1.595000000     1.131000000
H    -3.342000000     1.247000000     0.263000000
H    -2.203000000     1.788000000     1.100000000
O     4.288000000     3.935000000    -0.030000000
H     3.358000000     4.115000000    -0.169000000
H     4.731000000     4.736000000    -0.309000000
O     2.734000000    -2.589000000     4.848000000
H     1.811000000    -2.379000000     4.704000000
H     3.203000000    -2.065000000     4.199000000
O     3.457000000    -0.581000000     2.975000000
H     3.133000000    -0.821000000     2.107000000
H     4.398000000    -0.456000000     2.853000000
O    -5.554000000    -5.406000000    -0.882000000
H    -5.937000000    -4.567000000    -1.137000000
H    -5.644000000    -5.430000000     0.071000000
O    -3.687000000    -0.280000000    -5.528000000
H    -3.050000000     0.428000000    -5.634000000
H    -3.191000000    -1.078000000    -5.711000000
O     2.491000000     7.021000000    -0.369000000
H     3.195000000     7.419000000     0.142000000
H     2.934000000     6.629000000    -1.122000000
O     0.299000000    -4.591000000     0.438000000
H     0.160000000    -5.027000000    -0.402000000
H    -0.543000000    -4.180000000     0.637000000
O     4.186000000    -0.806000000    -1.820000000
H     4.409000000    -0.285000000    -1.048000000
H     5.024000000    -1.159000000    -2.121000000
O    -2.360000000    -0.122000000     7.353000000
H    -2.130000000     0.088000000     6.448000000
H    -2.920000000     0.603000000     7.632000000
O    -1.179000000    -2.546000000     7.002000000
H    -1.848000000    -3.205000000     7.189000000
H    -1.638000000    -1.710000000     7.077000000
O    -4.494000000     3.168000000     2.638000000
H    -3.988000000     2.587000000     2.070000000
H    -4.017000000     3.998000000     2.617000000
O    -1.904000000    -2.416000000    -5.700000000
H    -1.138000000    -2.828000000    -6.101000000
H    -1.776000000    -2.538000000    -4.759000000
O     0.155000000    -2.067000000     4.508000000
H    -0.344000000    -2.125000000     5.323000000
H    -0.509000000    -1.973000000     3.826000000
O     5.862000000     1.290000000    -0.002000000
H     5.188000000     1.908000000    -0.286000000
H     6.677000000     1.644000000    -0.358000000
O     2.249000000    -2.542000000    -3.101000000
H     1.570000000    -2.548000000    -2.426000000
H     2.890000000    -1.902000000    -2.791000000
O    -5.739000000    -5.413000000     1.804000000
H    -6.579000000    -5.758000000     2.108000000
H    -5.106000000    -6.095000000     2.028000000
O     6.757000000     3.555000000    -3.347000000
H     5.807000000     3.471000000    -3.420000000
H     7.099000000     3.062000000    -4.093000000
O     0.648000000     1.732000000    -4.371000000
H    -0.104000000     1.953000000    -4.920000000
H     0.769000000     0.791000000    -4.498000000
O    -2.072000000     0.458000000     4.419000000
H    -1.867000000    -0.310000000     3.885000000
H    -3.027000000     0.452000000     4.490000000
O    -3.665000000     0.009000000    -1.580000000
H    -4.457000000     0.319000000    -1.139000000
H    -3.989000000    -0.514000000    -2.313000000
O    -3.300000000    -6.296000000     2.682000000
H    -2.350000000    -6.384000000     2.764000000
H    -3.462000000    -5.357000000     2.775000000
O    -4.917000000     0.423000000     4.765000000
H    -5.254000000    -0.432000000     5.033000000
H    -5.426000000     0.648000000     3.986000000
O     2.205000000    -2.206000000     0.942000000
H     1.556000000    -1.512000000     1.056000000
H     1.686000000    -3.007000000     0.865000000
O    -7.029000000    -0.693000000     0.502000000
H    -6.699000000     0.170000000     0.254000000
H    -6.285000000    -1.123000000     0.923000000
O     3.477000000     0.362000000    -6.213000000
H     4.346000000     0.204000000    -6.580000000
H     3.602000000     1.093000000    -5.607000000
O     0.885000000    -4.774000000    -4.252000000
H     0.972000000    -5.502000000    -3.637000000
H     1.308000000    -4.037000000    -3.811000000
O     5.449000000     3.704000000     2.500000000
H     5.174000000     3.966000000     1.621000000
H     6.398000000     3.831000000     2.501000000
O    -1.459000000    -3.261000000    -3.104000000
H    -2.074000000    -3.580000000    -2.444000000
H    -1.033000000    -4.051000000    -3.436000000
O    -2.739000000    -4.621000000    -1.080000000
H    -2.607000000    -4.035000000    -0.335000000
H    -3.685000000    -4.766000000    -1.106000000
