158
-3051.82763
C    -0.044000000     0.207000000     1.402000000
H     0.044000000     0.451000000     2.457000000
C     0.488000000     1.092000000     0.549000000
H     0.952000000     2.038000000     0.821000000
C     0.388000000     0.798000000    -0.817000000
H     0.803000000     1.503000000    -1.506000000
C    -0.139000000    -0.433000000    -1.297000000
H    -0.240000000    -0.638000000    -2.360000000
C    -0.588000000    -1.369000000    -0.368000000
H    -1.047000000    -2.306000000    -0.675000000
C    -0.531000000    -1.097000000     1.014000000
C    -1.066000000    -2.015000000     2.074000000
O    -0.656000000    -1.979000000     3.206000000
O    -2.175000000    -2.485000000     1.889000000
O     3.312000000     3.605000000    -1.828000000
H     3.808000000     3.994000000    -2.548000000
H     3.324000000     2.665000000    -2.009000000
O    -2.632000000    -0.982000000     4.797000000
H    -2.760000000    -1.723000000     5.390000000
H    -2.265000000    -1.370000000     4.003000000
O     5.963000000     2.357000000     1.381000000
H     5.871000000     2.775000000     0.525000000
H     5.210000000     2.669000000     1.882000000
O     2.994000000     2.198000000     5.205000000
H     2.908000000     1.246000000     5.157000000
H     3.018000000     2.389000000     6.143000000
O    -3.155000000     1.783000000    -2.767000000
H    -3.680000000     2.532000000    -2.482000000
H    -2.774000000     1.437000000    -1.959000000
O    -1.819000000     0.247000000    -4.920000000
H    -0.936000000     0.604000000    -5.015000000
H    -2.133000000     0.602000000    -4.088000000
O    -5.860000000    -1.063000000     4.022000000
H    -5.644000000    -0.146000000     3.852000000
H    -5.205000000    -1.350000000     4.657000000
O     3.277000000     2.733000000     2.556000000
H     2.739000000     3.504000000     2.376000000
H     3.083000000     2.512000000     3.467000000
O    -2.154000000     5.441000000    -2.449000000
H    -2.291000000     4.581000000    -2.847000000
H    -1.577000000     5.271000000    -1.705000000
O    -0.746000000     4.215000000    -0.497000000
H    -0.136000000     3.478000000    -0.504000000
H    -1.107000000     4.218000000     0.390000000
O     2.280000000    -5.862000000     5.452000000
H     1.893000000    -5.950000000     6.323000000
H     1.677000000    -5.290000000     4.978000000
O     1.459000000    -0.922000000    -7.092000000
H     2.392000000    -1.112000000    -7.191000000
H     1.397000000    -0.461000000    -6.255000000
O     3.780000000     0.959000000    -2.028000000
H     4.733000000     0.889000000    -1.980000000
H     3.476000000     0.053000000    -2.078000000
O     0.640000000     3.269000000     4.348000000
H     1.445000000     2.982000000     4.780000000
H     0.673000000     4.225000000     4.391000000
O    -1.633000000    -6.463000000     1.681000000
H    -0.748000000    -6.210000000     1.420000000
H    -2.203000000    -5.833000000     1.240000000
O    -7.226000000    -2.889000000     1.973000000
H    -6.740000000    -2.421000000     2.653000000
H    -7.606000000    -2.197000000     1.432000000
O     0.018000000     5.826000000    -4.637000000
H     0.514000000     5.238000000    -5.206000000
H    -0.872000000     5.472000000    -4.644000000
O     3.288000000    -0.960000000     4.523000000
H     3.769000000    -1.600000000     5.047000000
H     2.373000000    -1.080000000     4.777000000
O    -5.982000000    -4.182000000    -0.053000000
H    -5.788000000    -3.297000000    -0.362000000
H    -6.395000000    -4.053000000     0.801000000
O     0.173000000     7.079000000    -2.009000000
H    -0.483000000     6.383000000    -2.042000000
H     0.504000000     7.139000000    -2.905000000
O     2.388000000    -2.313000000     0.087000000
H     2.950000000    -1.890000000     0.737000000
H     1.899000000    -1.593000000    -0.312000000
O     0.891000000    -5.441000000     1.755000000
H     0.631000000    -4.595000000     2.122000000
H     1.287000000    -5.909000000     2.490000000
O     1.042000000     3.367000000    -3.343000000
H     1.729000000     3.798000000    -2.834000000
H     0.838000000     3.987000000    -4.043000000
O     1.502000000    -4.664000000    -0.689000000
H     1.351000000    -5.145000000     0.124000000
H     1.902000000    -3.840000000    -0.410000000
O    -4.504000000    -1.161000000     1.451000000
H    -4.787000000    -1.295000000     2.356000000
H    -3.666000000    -1.619000000     1.391000000
O    -2.268000000    -2.473000000    -5.589000000
H    -3.140000000    -2.512000000    -5.980000000
H    -2.094000000    -1.538000000    -5.483000000
O     0.478000000    -4.163000000     4.697000000
H    -0.476000000    -4.212000000     4.747000000
H     0.655000000    -3.314000000     4.292000000
O    -0.299000000    -4.147000000    -4.587000000
H    -0.940000000    -3.702000000    -5.142000000
H    -0.658000000    -4.075000000    -3.703000000
O    -1.206000000     1.941000000     7.195000000
H    -0.630000000     2.442000000     7.772000000
H    -0.658000000     1.226000000     6.872000000
O    -3.200000000     0.831000000    -0.031000000
H    -3.666000000     0.519000000     0.745000000
H    -2.275000000     0.693000000     0.173000000
O     2.133000000    -4.434000000    -3.272000000
H     1.993000000    -4.400000000    -2.326000000
H     1.265000000    -4.611000000    -3.636000000
O    -2.983000000    -4.322000000     0.334000000
H    -2.930000000    -3.625000000     0.988000000
H    -3.820000000    -4.174000000    -0.107000000
O     2.602000000     6.434000000    -1.085000000
H     1.829000000     6.457000000    -1.650000000
H     2.469000000     5.668000000    -0.527000000
O     0.818000000    -0.944000000     5.026000000
H     0.238000000    -1.238000000     4.324000000
H     0.236000000    -0.786000000     5.769000000
O     1.510000000     5.328000000     2.316000000
H     1.908000000     5.802000000     1.585000000
H     1.680000000     5.879000000     3.080000000
O     1.195000000     4.017000000    -6.281000000
H     2.131000000     3.817000000    -6.248000000
H     0.804000000     3.260000000    -6.718000000
O     6.034000000     3.512000000    -0.923000000
H     6.666000000     4.119000000    -1.309000000
H     5.181000000     3.847000000    -1.199000000
O    -0.376000000    -1.181000000     7.563000000
H     0.366000000    -1.683000000     7.901000000
H    -1.015000000    -1.188000000     8.275000000
O    -3.049000000     1.530000000     2.844000000
H    -2.376000000     1.291000000     3.481000000
H    -2.667000000     2.257000000     2.353000000
O    -5.576000000    -1.539000000    -0.899000000
H    -5.747000000    -0.773000000    -1.446000000
H    -5.279000000    -1.177000000    -0.064000000
O    -2.072000000    -4.270000000     3.944000000
H    -2.014000000    -3.441000000     3.469000000
H    -2.465000000    -4.878000000     3.319000000
O    -3.782000000     1.115000000     6.325000000
H    -3.472000000     0.373000000     5.804000000
H    -2.987000000     1.490000000     6.704000000
O     2.901000000    -1.337000000    -3.330000000
H     2.124000000    -1.894000000    -3.275000000
H     3.551000000    -1.876000000    -3.780000000
O     1.256000000     0.540000000    -4.703000000
H     1.739000000    -0.013000000    -4.089000000
H     1.547000000     1.430000000    -4.503000000
O     3.891000000    -0.285000000     1.614000000
H     3.284000000    -0.223000000     2.352000000
H     4.050000000     0.623000000     1.358000000
O    -2.581000000    -3.205000000     6.922000000
H    -1.754000000    -3.010000000     7.364000000
H    -2.431000000    -4.049000000     6.496000000
O    -1.599000000    -4.292000000    -2.080000000
H    -1.869000000    -3.957000000    -1.225000000
H    -1.599000000    -5.243000000    -1.975000000
O    -1.611000000     3.716000000     2.281000000
H    -0.974000000     3.488000000     2.957000000
H    -1.624000000     4.673000000     2.278000000
