158
-2996.88200
C    -0.669000000     0.570000000     1.246000000
H    -0.881000000     1.021000000     2.212000000
C     0.104000000     1.303000000     0.293000000
H     0.334000000     2.360000000     0.389000000
C     0.696000000     0.691000000    -0.737000000
H     1.317000000     1.255000000    -1.457000000
C     0.492000000    -0.707000000    -1.002000000
H     0.867000000    -1.185000000    -1.904000000
C    -0.253000000    -1.423000000    -0.117000000
H    -0.401000000    -2.494000000    -0.232000000
C    -0.820000000    -0.802000000     1.040000000
C    -1.557000000    -1.561000000     2.082000000
O    -2.153000000    -0.993000000     2.943000000
O    -1.587000000    -2.758000000     1.991000000
O    -0.293000000     3.492000000    -2.572000000
H     0.129000000     2.793000000    -3.071000000
H    -0.469000000     4.175000000    -3.218000000
O    -2.996000000    -0.325000000    -2.015000000
H    -3.196000000     0.049000000    -1.157000000
H    -3.833000000    -0.668000000    -2.328000000
O    -1.797000000    -3.923000000     4.817000000
H    -1.482000000    -3.711000000     3.938000000
H    -2.138000000    -3.095000000     5.155000000
O    -4.885000000    -1.976000000     2.248000000
H    -4.206000000    -1.314000000     2.120000000
H    -5.038000000    -1.982000000     3.193000000
O    -4.037000000    -5.076000000    -1.899000000
H    -3.883000000    -4.404000000    -1.235000000
H    -4.735000000    -5.619000000    -1.533000000
O     3.608000000    -0.407000000     3.454000000
H     3.803000000    -0.886000000     4.259000000
H     2.975000000     0.260000000     3.720000000
O    -2.444000000    -0.393000000    -4.811000000
H    -3.378000000    -0.319000000    -5.005000000
H    -2.382000000    -0.245000000    -3.867000000
O     0.052000000    -0.914000000    -5.876000000
H     0.370000000    -0.157000000    -6.367000000
H    -0.824000000    -0.660000000    -5.586000000
O    -6.590000000    -1.523000000     0.001000000
H    -6.968000000    -0.651000000     0.121000000
H    -6.087000000    -1.678000000     0.801000000
O     6.041000000     3.512000000     0.654000000
H     5.715000000     3.926000000    -0.145000000
H     5.350000000     3.662000000     1.300000000
O    -4.440000000     1.351000000     0.961000000
H    -3.804000000     2.026000000     0.721000000
H    -4.464000000     1.375000000     1.918000000
O     1.694000000     1.229000000     4.519000000
H     0.946000000     0.704000000     4.235000000
H     1.304000000     2.001000000     4.928000000
O    -3.664000000    -1.738000000     5.302000000
H    -3.318000000    -1.574000000     4.425000000
H    -3.097000000    -1.228000000     5.882000000
O     0.209000000     6.266000000     2.870000000
H     0.419000000     7.198000000     2.806000000
H    -0.121000000     6.156000000     3.762000000
O    -2.208000000     1.703000000    -6.795000000
H    -2.055000000     1.229000000    -5.977000000
H    -2.929000000     1.232000000    -7.214000000
O     2.760000000    -3.497000000    -3.222000000
H     3.237000000    -3.091000000    -3.946000000
H     1.842000000    -3.289000000    -3.394000000
O    -0.911000000     5.392000000    -4.427000000
H    -0.331000000     6.069000000    -4.078000000
H    -1.108000000     5.681000000    -5.317000000
O    -1.971000000     5.504000000     1.258000000
H    -2.044000000     6.182000000     0.585000000
H    -1.103000000     5.636000000     1.638000000
O     3.743000000     3.720000000    -3.682000000
H     3.286000000     4.450000000    -4.098000000
H     3.093000000     3.018000000    -3.648000000
O     3.182000000    -4.480000000    -0.777000000
H     2.822000000    -3.762000000    -0.258000000
H     3.006000000    -4.231000000    -1.685000000
O    -2.045000000    -0.162000000     6.912000000
H    -2.688000000     0.483000000     7.207000000
H    -1.565000000    -0.402000000     7.705000000
O    -2.518000000    -7.264000000     3.998000000
H    -2.288000000    -6.804000000     4.806000000
H    -3.236000000    -6.751000000     3.628000000
O     0.374000000     5.711000000    -0.958000000
H     0.252000000     4.769000000    -1.077000000
H    -0.434000000     6.101000000    -1.291000000
O    -0.109000000    -6.505000000     2.582000000
H    -0.777000000    -6.148000000     3.168000000
H    -0.482000000    -7.328000000     2.268000000
O     2.744000000    -1.819000000     0.614000000
H     1.816000000    -1.753000000     0.837000000
H     3.201000000    -1.499000000     1.392000000
O     0.414000000    -2.991000000    -4.244000000
H     0.166000000    -2.286000000    -4.842000000
H    -0.248000000    -2.965000000    -3.553000000
O    -5.858000000    -2.700000000     6.519000000
H    -5.057000000    -2.619000000     6.000000000
H    -5.815000000    -3.582000000     6.888000000
O     6.005000000     2.142000000    -4.732000000
H     5.736000000     1.264000000    -4.463000000
H     5.744000000     2.706000000    -4.004000000
O    -3.682000000     1.174000000     3.649000000
H    -3.181000000     1.947000000     3.908000000
H    -3.018000000     0.529000000     3.404000000
O    -3.514000000    -3.692000000     0.250000000
H    -2.702000000    -3.732000000     0.756000000
H    -4.024000000    -3.000000000     0.670000000
O     4.955000000     5.112000000    -1.561000000
H     4.435000000     4.580000000    -2.163000000
H     4.346000000     5.348000000    -0.862000000
O    -0.433000000    -0.300000000     4.774000000
H    -1.039000000    -0.703000000     4.152000000
H    -0.938000000    -0.220000000     5.583000000
O     2.939000000     6.106000000     0.096000000
H     3.207000000     7.006000000    -0.087000000
H     2.088000000     6.017000000    -0.334000000
O     1.098000000    -5.504000000     5.078000000
H     0.961000000    -5.473000000     4.131000000
H     1.036000000    -6.433000000     5.299000000
O     4.534000000    -0.132000000    -4.130000000
H     4.659000000    -0.774000000    -3.432000000
H     4.221000000    -0.646000000    -4.875000000
O    -6.017000000     0.669000000     4.732000000
H    -5.121000000     0.773000000     4.409000000
H    -6.475000000     0.215000000     4.024000000
O     3.732000000     3.944000000     1.856000000
H     3.359000000     4.649000000     1.327000000
H     3.126000000     3.850000000     2.591000000
O     0.433000000     3.168000000     6.185000000
H     0.082000000     3.822000000     5.581000000
H     0.197000000     3.493000000     7.054000000
O     1.653000000     1.882000000    -6.488000000
H     2.463000000     1.667000000    -6.951000000
H     1.619000000     2.838000000    -6.496000000
O     1.799000000     4.610000000    -6.381000000
H     0.924000000     4.735000000    -6.014000000
H     2.384000000     5.043000000    -5.759000000
O    -2.820000000     2.800000000    -0.541000000
H    -2.518000000     3.476000000     0.065000000
H    -2.019000000     2.363000000    -0.830000000
O    -4.283000000    -5.461000000     2.675000000
H    -4.323000000    -4.565000000     3.010000000
H    -4.051000000    -5.362000000     1.752000000
O     2.009000000     1.690000000    -3.665000000
H     1.962000000     1.586000000    -4.616000000
H     2.039000000     0.795000000    -3.328000000
O     4.475000000    -1.085000000    -1.437000000
H     3.619000000    -1.314000000    -1.076000000
H     4.679000000    -0.234000000    -1.049000000
O    -3.258000000     3.692000000    -4.287000000
H    -3.452000000     3.226000000    -5.101000000
H    -2.818000000     4.494000000    -4.570000000
O    -0.734000000    -5.515000000    -1.379000000
H    -1.050000000    -4.624000000    -1.530000000
H    -1.500000000    -5.989000000    -1.055000000
O    -1.743000000    -3.035000000    -2.745000000
H    -2.539000000    -3.564000000    -2.692000000
H    -2.051000000    -2.131000000    -2.669000000
O    -2.015000000     3.352000000     3.509000000
H    -1.723000000     3.989000000     4.160000000
H    -2.136000000     3.865000000     2.710000000
