158
-3015.94782
C     0.000000000     0.037000000     1.483000000
H    -0.074000000     0.215000000     2.552000000
C     0.609000000     0.942000000     0.643000000
H     1.041000000     1.847000000     1.061000000
C     0.617000000     0.800000000    -0.716000000
H     1.187000000     1.493000000    -1.282000000
C     0.010000000    -0.348000000    -1.292000000
H     0.108000000    -0.396000000    -2.374000000
C    -0.636000000    -1.278000000    -0.382000000
H    -1.137000000    -2.140000000    -0.815000000
C    -0.618000000    -1.110000000     0.981000000
C    -1.392000000    -2.114000000     1.850000000
O    -1.401000000    -1.886000000     3.033000000
O    -2.140000000    -2.874000000     1.320000000
O    -0.249000000     5.592000000    -3.836000000
H    -0.411000000     6.325000000    -3.243000000
H     0.703000000     5.495000000    -3.843000000
O    -0.657000000     1.735000000    -4.742000000
H    -0.930000000     2.446000000    -4.162000000
H    -1.310000000     1.049000000    -4.603000000
O    -1.633000000    -4.334000000     4.084000000
H    -1.444000000    -3.466000000     3.727000000
H    -1.973000000    -4.163000000     4.962000000
O    -6.000000000    -2.092000000     1.341000000
H    -5.086000000    -2.261000000     1.569000000
H    -6.475000000    -2.184000000     2.167000000
O    -4.515000000    -4.124000000    -3.148000000
H    -4.441000000    -3.535000000    -2.396000000
H    -5.403000000    -4.475000000    -3.091000000
O     3.575000000    -0.341000000     1.597000000
H     2.746000000     0.092000000     1.801000000
H     4.220000000     0.367000000     1.591000000
O     1.361000000     1.822000000    -6.691000000
H     1.810000000     2.664000000    -6.760000000
H     0.767000000     1.928000000    -5.948000000
O    -5.956000000    -0.788000000    -1.017000000
H    -6.562000000    -0.050000000    -1.079000000
H    -6.140000000    -1.178000000    -0.162000000
O    -3.213000000     1.461000000    -0.572000000
H    -2.389000000     1.942000000    -0.498000000
H    -3.194000000     0.840000000     0.157000000
O    -2.195000000    -1.231000000     5.722000000
H    -1.612000000    -1.151000000     4.968000000
H    -3.043000000    -0.921000000     5.403000000
O     3.618000000    -4.115000000    -4.206000000
H     4.333000000    -3.615000000    -4.600000000
H     2.871000000    -3.517000000    -4.221000000
O     3.493000000    -1.023000000     5.049000000
H     2.581000000    -1.233000000     4.850000000
H     3.913000000    -1.875000000     5.173000000
O     2.311000000    -4.568000000     5.695000000
H     1.823000000    -5.386000000     5.599000000
H     1.663000000    -3.882000000     5.532000000
O     1.238000000    -5.700000000     0.558000000
H     0.345000000    -5.402000000     0.385000000
H     1.764000000    -5.296000000    -0.132000000
O     2.526000000    -4.260000000    -1.696000000
H     2.162000000    -3.434000000    -1.377000000
H     3.333000000    -4.008000000    -2.146000000
O    -0.265000000    -0.307000000     7.681000000
H    -0.807000000    -0.797000000     7.062000000
H     0.011000000    -0.959000000     8.325000000
O    -4.233000000    -4.395000000     2.504000000
H    -3.310000000    -4.144000000     2.507000000
H    -4.383000000    -4.768000000     3.373000000
O     1.278000000     5.480000000    -0.362000000
H     1.133000000     6.341000000     0.032000000
H     0.435000000     5.034000000    -0.280000000
O    -1.072000000    -4.867000000    -0.202000000
H    -1.563000000    -4.149000000     0.198000000
H    -1.314000000    -4.835000000    -1.128000000
O    -1.702000000    -4.862000000    -2.888000000
H    -1.675000000    -5.809000000    -3.026000000
H    -2.621000000    -4.673000000    -2.701000000
O     2.194000000    -1.946000000    -0.327000000
H     1.589000000    -1.252000000    -0.588000000
H     2.753000000    -1.540000000     0.336000000
O    -0.056000000    -0.674000000    -6.812000000
H     0.577000000     0.024000000    -6.640000000
H    -0.788000000    -0.482000000    -6.226000000
O    -1.626000000    -3.588000000     6.815000000
H    -1.964000000    -2.810000000     6.372000000
H    -2.376000000    -3.931000000     7.301000000
O     4.821000000    -1.609000000    -1.837000000
H     5.341000000    -1.708000000    -2.635000000
H     4.953000000    -2.430000000    -1.362000000
O    -2.051000000     1.963000000     7.058000000
H    -1.340000000     1.400000000     7.364000000
H    -2.320000000     1.578000000     6.224000000
O     4.742000000     2.396000000    -5.257000000
H     4.649000000     1.445000000    -5.306000000
H     5.671000000     2.554000000    -5.423000000
O    -3.075000000     0.775000000     2.077000000
H    -2.404000000     1.443000000     2.218000000
H    -3.256000000     0.429000000     2.951000000
O    -3.992000000    -2.719000000    -0.862000000
H    -3.340000000    -2.451000000    -0.215000000
H    -4.645000000    -2.019000000    -0.848000000
O     6.157000000     5.724000000    -2.268000000
H     5.717000000     6.481000000    -2.656000000
H     5.451000000     5.215000000    -1.869000000
O     1.017000000    -1.315000000     4.648000000
H     0.518000000    -1.599000000     3.882000000
H     0.364000000    -0.921000000     5.226000000
O     4.123000000     5.050000000    -0.608000000
H     4.665000000     5.784000000    -0.319000000
H     3.294000000     5.167000000    -0.145000000
O    -1.241000000    -6.549000000     2.388000000
H    -1.001000000    -6.130000000     1.561000000
H    -1.463000000    -5.822000000     2.969000000
O     4.417000000    -0.323000000    -5.413000000
H     3.675000000    -0.528000000    -4.844000000
H     4.192000000    -0.722000000    -6.253000000
O    -5.751000000     0.693000000     2.168000000
H    -4.911000000     0.781000000     1.717000000
H    -6.371000000     0.465000000     1.476000000
O     4.208000000     3.129000000     1.269000000
H     3.705000000     3.653000000     1.893000000
H     4.270000000     3.680000000     0.489000000
O     0.168000000     3.026000000     4.893000000
H     0.885000000     3.115000000     5.521000000
H    -0.565000000     3.488000000     5.300000000
O    -3.605000000     2.543000000     4.377000000
H    -4.219000000     2.083000000     4.950000000
H    -4.161000000     2.981000000     3.732000000
O    -3.951000000     0.101000000    -3.246000000
H    -3.835000000     0.149000000    -2.297000000
H    -4.884000000     0.266000000    -3.383000000
O    -1.698000000     3.459000000    -2.859000000
H    -1.645000000     3.437000000    -1.903000000
H    -1.264000000     4.276000000    -3.104000000
O    -5.018000000    -5.211000000    -0.023000000
H    -4.643000000    -4.468000000    -0.496000000
H    -4.570000000    -5.207000000     0.823000000
O     2.479000000     4.928000000    -4.451000000
H     2.851000000     5.022000000    -5.328000000
H     2.615000000     4.006000000    -4.232000000
O     2.522000000    -1.465000000    -3.528000000
H     1.567000000    -1.542000000    -3.526000000
H     2.750000000    -1.295000000    -2.614000000
O     2.472000000     4.185000000     3.091000000
H     1.573000000     3.877000000     3.199000000
H     2.978000000     3.679000000     3.727000000
O    -3.893000000     2.955000000    -4.332000000
H    -4.404000000     2.341000000    -3.804000000
H    -3.106000000     3.119000000    -3.813000000
O     0.263000000    -2.794000000    -3.773000000
H    -0.437000000    -2.141000000    -3.784000000
H    -0.194000000    -3.634000000    -3.723000000
O    -1.911000000    -0.609000000    -4.779000000
H    -2.169000000    -1.246000000    -5.446000000
H    -2.717000000    -0.430000000    -4.295000000
O    -1.643000000     3.079000000     2.638000000
H    -0.920000000     3.277000000     3.234000000
H    -2.404000000     2.978000000     3.210000000
O    -1.608000000     3.680000000     0.032000000
H    -2.420000000     4.176000000     0.128000000
H    -1.498000000     3.236000000     0.873000000
