158
-3014.35914
C     0.248000000    -1.217000000     0.870000000
H     0.477000000    -2.055000000     1.524000000
C    -0.414000000    -0.065000000     1.261000000
H    -0.812000000    -0.002000000     2.271000000
C    -0.659000000     0.989000000     0.394000000
H    -1.357000000     1.856000000     0.666000000
C    -0.177000000     0.878000000    -0.934000000
H    -0.484000000     1.579000000    -1.706000000
C     0.664000000    -0.215000000    -1.299000000
H     1.145000000    -0.288000000    -2.271000000
C     0.849000000    -1.263000000    -0.404000000
C     1.607000000    -2.450000000    -0.843000000
O     2.038000000    -2.527000000    -1.951000000
O     1.633000000    -3.440000000    -0.148000000
O    -3.739000000     4.053000000     1.645000000
H    -3.934000000     4.990000000     1.689000000
H    -4.523000000     3.664000000     1.258000000
O     2.049000000    -2.829000000    -4.607000000
H     2.035000000    -2.740000000    -3.654000000
H     2.002000000    -1.930000000    -4.932000000
O    -0.111000000    -4.167000000     3.384000000
H     0.103000000    -3.511000000     4.047000000
H    -0.747000000    -4.740000000     3.810000000
O     1.048000000     3.415000000    -2.627000000
H     0.309000000     2.819000000    -2.743000000
H     1.807000000     2.840000000    -2.529000000
O    -1.841000000     2.944000000     3.277000000
H    -2.326000000     2.178000000     3.583000000
H    -2.468000000     3.423000000     2.735000000
O    -3.959000000    -3.697000000     2.217000000
H    -4.485000000    -3.235000000     1.564000000
H    -3.105000000    -3.811000000     1.800000000
O    -2.352000000    -1.575000000    -1.218000000
H    -1.532000000    -2.063000000    -1.146000000
H    -2.258000000    -0.856000000    -0.593000000
O     3.454000000    -3.798000000     4.908000000
H     4.115000000    -3.107000000     4.853000000
H     2.998000000    -3.762000000     4.068000000
O    -3.994000000     3.326000000     6.088000000
H    -4.087000000     2.459000000     6.482000000
H    -3.049000000     3.441000000     5.983000000
O    -1.996000000     1.014000000     6.195000000
H    -1.220000000     0.503000000     5.966000000
H    -2.628000000     0.813000000     5.505000000
O    -2.995000000     2.987000000    -1.416000000
H    -3.586000000     2.250000000    -1.264000000
H    -2.570000000     2.784000000    -2.250000000
O     3.925000000    -0.865000000     3.109000000
H     4.627000000    -1.252000000     2.586000000
H     4.036000000    -1.248000000     3.979000000
O    -1.402000000     7.492000000    -3.083000000
H    -1.477000000     6.881000000    -2.350000000
H    -1.247000000     8.342000000    -2.672000000
O    -6.080000000     3.937000000     0.023000000
H    -6.708000000     4.389000000     0.587000000
H    -6.389000000     4.110000000    -0.866000000
O     2.964000000    -7.281000000     1.946000000
H     2.768000000    -6.368000000     2.155000000
H     2.109000000    -7.712000000     1.932000000
O    -0.760000000    -3.939000000    -3.849000000
H     0.157000000    -4.147000000    -4.030000000
H    -1.044000000    -3.427000000    -4.606000000
O     1.284000000     4.761000000    -5.325000000
H     1.014000000     4.251000000    -4.562000000
H     0.718000000     4.451000000    -6.032000000
O     3.479000000    -5.032000000    -1.396000000
H     2.753000000    -4.420000000    -1.275000000
H     4.148000000    -4.734000000    -0.778000000
O     4.747000000    -1.585000000    -2.808000000
H     5.077000000    -2.468000000    -2.642000000
H     3.827000000    -1.620000000    -2.545000000
O     1.351000000    -5.126000000    -6.021000000
H     2.086000000    -5.572000000    -5.599000000
H     1.606000000    -4.204000000    -6.033000000
O     6.195000000    -3.888000000    -0.330000000
H     6.948000000    -4.259000000     0.131000000
H     5.464000000    -3.998000000     0.279000000
O    -0.077000000    -4.996000000    -0.998000000
H    -0.390000000    -4.367000000    -1.648000000
H     0.676000000    -4.567000000    -0.592000000
O     0.934000000     5.987000000    -1.647000000
H     1.079000000     5.064000000    -1.857000000
H     0.017000000     6.029000000    -1.376000000
O    -5.864000000     0.418000000     2.595000000
H    -5.705000000     0.519000000     1.657000000
H    -6.377000000    -0.387000000     2.666000000
O    -1.163000000     4.147000000     5.986000000
H    -1.336000000     5.076000000     5.835000000
H    -1.435000000     3.717000000     5.176000000
O    -0.931000000     0.436000000    -5.081000000
H    -1.254000000     0.510000000    -5.979000000
H    -1.532000000    -0.178000000    -4.660000000
O    -1.639000000    -4.076000000     1.119000000
H    -1.308000000    -4.785000000     0.568000000
H    -0.932000000    -3.906000000     1.741000000
O     3.000000000     2.113000000    -4.859000000
H     3.056000000     1.851000000    -3.940000000
H     3.440000000     2.962000000    -4.893000000
O     1.483000000     3.243000000     5.417000000
H     0.635000000     3.685000000     5.363000000
H     1.444000000     2.566000000     4.741000000
O    -1.750000000     5.574000000    -0.904000000
H    -2.392000000     6.102000000    -0.430000000
H    -2.247000000     4.818000000    -1.218000000
O     0.334000000    -0.202000000     5.760000000
H    -0.028000000    -0.932000000     6.262000000
H     0.897000000    -0.616000000     5.106000000
O     2.538000000    -7.497000000    -2.451000000
H     2.674000000    -6.654000000    -2.020000000
H     2.850000000    -7.362000000    -3.346000000
O    -0.435000000    -7.579000000    -0.497000000
H    -0.363000000    -8.006000000    -1.351000000
H    -0.122000000    -6.687000000    -0.648000000
O    -1.806000000     2.601000000    -3.918000000
H    -2.426000000     3.044000000    -4.498000000
H    -1.478000000     1.866000000    -4.436000000
O     1.730000000    -0.272000000    -5.633000000
H     0.876000000     0.136000000    -5.488000000
H     2.359000000     0.440000000    -5.512000000
O     3.063000000     2.096000000    -1.980000000
H     3.083000000     1.503000000    -1.228000000
H     3.653000000     2.810000000    -1.737000000
O    -3.101000000    -1.153000000    -3.812000000
H    -2.880000000    -1.472000000    -2.937000000
H    -3.348000000    -1.939000000    -4.298000000
O     5.112000000    -4.750000000     2.010000000
H     5.806000000    -4.744000000     2.670000000
H     4.321000000    -4.982000000     2.496000000
O    -3.570000000     0.811000000     3.994000000
H    -4.352000000     0.796000000     3.442000000
H    -3.214000000    -0.075000000     3.930000000
O    -0.348000000     7.244000000     1.201000000
H    -0.964000000     6.638000000     0.789000000
H     0.119000000     6.710000000     1.844000000
O     2.164000000    -4.790000000     2.107000000
H     2.037000000    -4.345000000     1.269000000
H     1.328000000    -4.689000000     2.562000000
O    -4.730000000    -2.343000000    -0.247000000
H    -3.928000000    -1.970000000    -0.612000000
H    -5.396000000    -2.180000000    -0.916000000
O     5.973000000    -0.784000000    -5.174000000
H     5.376000000    -0.939000000    -4.442000000
H     6.847000000    -0.895000000    -4.798000000
O    -2.669000000    -2.010000000     3.986000000
H    -2.349000000    -2.671000000     4.599000000
H    -3.309000000    -2.474000000     3.446000000
O    -5.557000000     1.162000000     0.026000000
H    -5.717000000     2.101000000     0.122000000
H    -6.106000000     0.899000000    -0.712000000
O     1.524000000     1.572000000     3.283000000
H     0.963000000     1.260000000     2.573000000
H     2.359000000     1.124000000     3.144000000
O     0.466000000     4.639000000     2.649000000
H    -0.242000000     4.012000000     2.794000000
H     1.252000000     4.099000000     2.566000000
O     4.753000000    -4.549000000    -5.315000000
H     4.462000000    -3.679000000    -5.044000000
H     5.541000000    -4.710000000    -4.797000000
