158
-3059.53196
C    -1.021000000    -0.176000000     1.004000000
H    -1.637000000    -0.355000000     1.881000000
C    -0.079000000     0.882000000     1.015000000
H    -0.106000000     1.577000000     1.850000000
C     0.817000000     0.948000000    -0.057000000
H     1.530000000     1.703000000    -0.070000000
C     0.698000000     0.041000000    -1.096000000
H     1.401000000     0.133000000    -1.919000000
C    -0.210000000    -1.013000000    -1.072000000
H    -0.238000000    -1.721000000    -1.897000000
C    -1.067000000    -1.133000000    -0.013000000
C    -2.056000000    -2.305000000    -0.014000000
O    -2.656000000    -2.593000000     1.000000000
O    -2.062000000    -3.151000000    -0.913000000
O     0.162000000    -4.924000000    -5.010000000
H     0.562000000    -5.121000000    -4.163000000
H     0.811000000    -5.209000000    -5.653000000
O    -0.989000000    -2.964000000     3.020000000
H    -1.664000000    -2.868000000     2.348000000
H    -1.473000000    -2.983000000     3.846000000
O    -5.638000000    -0.057000000    -0.793000000
H    -5.265000000     0.824000000    -0.770000000
H    -5.089000000    -0.533000000    -1.416000000
O    -5.934000000    -4.697000000    -3.047000000
H    -5.560000000    -4.328000000    -2.247000000
H    -6.084000000    -3.940000000    -3.612000000
O     4.982000000     1.506000000    -0.784000000
H     5.888000000     1.757000000    -0.964000000
H     5.052000000     0.804000000    -0.137000000
O    -5.094000000     0.674000000     1.868000000
H    -4.724000000     1.425000000     1.404000000
H    -5.595000000     0.204000000     1.201000000
O    -4.144000000    -1.228000000    -3.371000000
H    -3.619000000    -2.025000000    -3.304000000
H    -3.501000000    -0.519000000    -3.400000000
O    -1.611000000     2.751000000    -1.440000000
H    -1.030000000     2.079000000    -1.084000000
H    -1.025000000     3.358000000    -1.893000000
O     2.239000000    -1.252000000     1.078000000
H     1.646000000    -0.713000000     0.554000000
H     1.803000000    -2.103000000     1.132000000
O    -1.294000000     6.621000000     2.214000000
H    -0.563000000     6.121000000     1.849000000
H    -2.068000000     6.262000000     1.781000000
O    -4.305000000    -6.874000000     3.386000000
H    -3.880000000    -6.368000000     4.078000000
H    -4.270000000    -6.304000000     2.617000000
O     3.037000000    -3.003000000    -1.769000000
H     2.452000000    -2.632000000    -1.109000000
H     3.105000000    -2.322000000    -2.439000000
O     2.650000000     2.751000000    -3.778000000
H     3.555000000     3.056000000    -3.704000000
H     2.727000000     1.808000000    -3.924000000
O    -0.830000000     0.145000000     4.497000000
H    -0.799000000    -0.381000000     5.297000000
H    -0.673000000     1.041000000     4.794000000
O    -4.758000000    -3.041000000    -1.176000000
H    -5.180000000    -2.782000000    -0.357000000
H    -3.827000000    -3.090000000    -0.961000000
O    -2.702000000    -5.346000000     4.969000000
H    -2.024000000    -5.301000000     5.642000000
H    -2.978000000    -4.438000000     4.845000000
O     3.068000000    -3.085000000    -4.898000000
H     3.091000000    -3.854000000    -4.328000000
H     2.250000000    -2.643000000    -4.670000000
O     4.749000000     0.032000000     1.842000000
H     3.939000000    -0.432000000     2.053000000
H     5.337000000    -0.649000000     1.516000000
O    -0.880000000    -1.987000000     6.400000000
H    -0.699000000    -2.851000000     6.769000000
H    -1.465000000    -2.159000000     5.662000000
O    -3.060000000    -2.637000000     4.882000000
H    -3.642000000    -2.421000000     5.611000000
H    -3.522000000    -2.322000000     4.105000000
O     1.140000000     2.361000000    -6.074000000
H     0.953000000     1.448000000    -5.855000000
H     1.750000000     2.649000000    -5.394000000
O     5.468000000     1.968000000     3.684000000
H     4.668000000     2.256000000     4.123000000
H     5.161000000     1.519000000     2.896000000
O    -0.912000000     2.826000000     5.441000000
H    -0.313000000     3.573000000     5.436000000
H    -1.784000000     3.219000000     5.461000000
O    -4.456000000    -1.815000000     2.771000000
H    -4.752000000    -0.946000000     2.500000000
H    -3.726000000    -2.013000000     2.185000000
O     0.094000000     6.300000000    -0.974000000
H     0.442000000     6.015000000    -0.129000000
H     0.753000000     6.907000000    -1.312000000
O    -2.126000000     0.741000000    -3.602000000
H    -2.116000000     1.164000000    -2.743000000
H    -1.786000000     1.406000000    -4.200000000
O    -3.250000000    -6.668000000    -1.679000000
H    -3.574000000    -7.530000000    -1.938000000
H    -2.868000000    -6.305000000    -2.479000000
O     1.019000000    -3.835000000     1.538000000
H     0.291000000    -3.440000000     2.019000000
H     0.635000000    -4.601000000     1.111000000
O    -3.610000000     4.987000000     1.915000000
H    -3.760000000     4.841000000     0.981000000
H    -3.405000000     4.119000000     2.263000000
O     0.712000000    -5.971000000    -2.488000000
H     0.352000000    -5.802000000    -1.617000000
H     1.661000000    -5.960000000    -2.361000000
O    -2.727000000     2.543000000     2.504000000
H    -2.752000000     1.792000000     1.911000000
H    -2.481000000     2.170000000     3.351000000
O     3.556000000     6.116000000    -1.118000000
H     4.422000000     6.458000000    -0.895000000
H     3.598000000     5.188000000    -0.886000000
O     1.162000000     5.323000000     1.416000000
H     1.514000000     4.436000000     1.479000000
H     1.685000000     5.833000000     2.035000000
O    -6.501000000    -3.706000000     2.839000000
H    -6.488000000    -4.015000000     3.744000000
H    -5.710000000    -3.172000000     2.757000000
O    -3.657000000     1.107000000     5.203000000
H    -4.607000000     1.025000000     5.281000000
H    -3.322000000     0.843000000     6.060000000
O    -0.624000000    -5.328000000    -0.234000000
H    -1.204000000    -4.606000000    -0.474000000
H    -1.042000000    -5.728000000     0.529000000
O    -4.087000000     2.135000000    -0.551000000
H    -4.173000000     3.052000000    -0.290000000
H    -3.164000000     2.038000000    -0.787000000
O     2.328000000     2.888000000     2.267000000
H     2.553000000     3.164000000     3.155000000
H     1.807000000     2.094000000     2.387000000
O     3.518000000     3.655000000    -0.316000000
H     4.086000000     2.906000000    -0.494000000
H     3.147000000     3.475000000     0.547000000
O     1.907000000    -0.305000000     3.892000000
H     2.186000000    -0.739000000     3.086000000
H     1.034000000    -0.657000000     4.064000000
O    -3.691000000    -5.666000000     1.053000000
H    -3.853000000    -5.975000000     0.162000000
H    -3.221000000    -4.840000000     0.938000000
O     4.319000000    -0.003000000    -2.980000000
H     5.100000000    -0.534000000    -3.139000000
H     4.489000000     0.426000000    -2.142000000
O    -2.483000000    -3.236000000    -3.399000000
H    -2.330000000    -3.140000000    -2.459000000
H    -2.726000000    -4.156000000    -3.509000000
O     2.363000000     0.166000000    -4.723000000
H     3.051000000    -0.104000000    -4.115000000
H     2.001000000    -0.655000000    -5.055000000
O    -2.407000000    -5.679000000    -4.274000000
H    -1.461000000    -5.684000000    -4.419000000
H    -2.783000000    -5.888000000    -5.129000000
O    -2.020000000    -1.935000000    -5.834000000
H    -2.820000000    -1.417000000    -5.926000000
H    -2.113000000    -2.372000000    -4.988000000
O     0.716000000    -2.080000000    -4.870000000
H     0.525000000    -3.013000000    -4.961000000
H    -0.136000000    -1.652000000    -4.955000000
O     0.380000000     4.262000000    -2.795000000
H     0.309000000     5.035000000    -2.236000000
H     1.279000000     3.957000000    -2.670000000
