158
-3071.13407
C    -0.972000000    -0.970000000     0.646000000
H    -1.768000000    -1.458000000     1.203000000
C    -0.195000000    -0.018000000     1.299000000
H    -0.281000000     0.243000000     2.351000000
C     0.741000000     0.776000000     0.595000000
H     1.400000000     1.531000000     1.088000000
C     0.991000000     0.516000000    -0.716000000
H     1.731000000     1.111000000    -1.245000000
C     0.167000000    -0.421000000    -1.440000000
H     0.443000000    -0.663000000    -2.463000000
C    -0.833000000    -1.204000000    -0.785000000
C    -1.680000000    -2.113000000    -1.534000000
O    -2.551000000    -2.822000000    -1.003000000
O    -1.604000000    -2.169000000    -2.728000000
O    -2.108000000    -5.417000000    -5.453000000
H    -1.696000000    -4.577000000    -5.654000000
H    -2.399000000    -5.331000000    -4.545000000
O    -3.617000000    -4.092000000     2.895000000
H    -4.319000000    -4.665000000     2.587000000
H    -4.037000000    -3.240000000     3.011000000
O    -5.687000000    -1.339000000    -5.603000000
H    -5.002000000    -1.619000000    -6.211000000
H    -5.283000000    -1.411000000    -4.738000000
O    -6.004000000    -3.764000000    -3.212000000
H    -5.368000000    -3.061000000    -3.077000000
H    -5.962000000    -3.947000000    -4.151000000
O     4.854000000     0.565000000    -0.507000000
H     5.754000000     0.273000000    -0.651000000
H     4.350000000    -0.244000000    -0.422000000
O     2.408000000    -1.769000000     4.714000000
H     3.197000000    -2.181000000     5.067000000
H     2.533000000    -1.786000000     3.765000000
O     0.114000000    -6.700000000     1.099000000
H     0.591000000    -6.902000000     0.294000000
H    -0.449000000    -5.962000000     0.865000000
O    -2.077000000     2.901000000    -2.875000000
H    -1.719000000     2.021000000    -2.992000000
H    -2.784000000     2.789000000    -2.239000000
O     2.567000000    -1.769000000     2.001000000
H     1.921000000    -1.085000000     1.825000000
H     3.254000000    -1.623000000     1.350000000
O    -2.572000000     5.840000000     2.648000000
H    -2.449000000     4.906000000     2.817000000
H    -3.504000000     5.992000000     2.806000000
O     1.327000000     1.407000000    -6.063000000
H     1.104000000     2.249000000    -5.666000000
H     2.082000000     1.099000000    -5.563000000
O    -5.061000000    -6.229000000     1.527000000
H    -4.518000000    -6.998000000     1.357000000
H    -5.053000000    -5.742000000     0.703000000
O     3.897000000    -1.979000000    -0.418000000
H     3.164000000    -2.592000000    -0.465000000
H     4.646000000    -2.474000000    -0.751000000
O     3.124000000     4.219000000    -3.466000000
H     3.428000000     3.630000000    -2.776000000
H     3.824000000     4.205000000    -4.119000000
O    -0.251000000     3.553000000     0.159000000
H    -0.119000000     2.697000000    -0.249000000
H    -0.102000000     3.400000000     1.092000000
O    -4.469000000    -1.518000000    -3.030000000
H    -4.776000000    -0.680000000    -2.684000000
H    -3.691000000    -1.721000000    -2.512000000
O     0.887000000     0.663000000     4.885000000
H     1.295000000    -0.203000000     4.887000000
H     1.536000000     1.234000000     4.475000000
O    -1.543000000    -0.987000000     5.051000000
H    -1.103000000    -0.734000000     5.863000000
H    -1.049000000    -0.543000000     4.362000000
O    -2.724000000     1.031000000     3.271000000
H    -3.001000000     1.905000000     3.544000000
H    -3.302000000     0.436000000     3.749000000
O     0.760000000    -1.060000000    -5.015000000
H     1.671000000    -1.271000000    -4.811000000
H     0.806000000    -0.221000000    -5.474000000
O     6.148000000     4.271000000     2.658000000
H     5.618000000     4.466000000     3.430000000
H     5.813000000     3.431000000     2.342000000
O    -0.640000000     3.021000000     2.795000000
H     0.090000000     3.078000000     3.412000000
H    -1.027000000     2.161000000     2.961000000
O    -4.585000000    -1.821000000     0.409000000
H    -3.783000000    -2.219000000     0.071000000
H    -5.245000000    -2.510000000     0.332000000
O    -0.676000000     5.061000000    -2.551000000
H    -0.714000000     5.129000000    -1.597000000
H    -1.170000000     4.267000000    -2.754000000
O    -1.578000000     0.246000000    -4.193000000
H    -1.819000000    -0.575000000    -3.763000000
H    -0.623000000     0.218000000    -4.245000000
O     1.514000000     6.057000000     0.694000000
H     1.643000000     6.810000000     0.116000000
H     0.987000000     5.447000000     0.178000000
O    -2.341000000    -5.311000000     5.041000000
H    -2.571000000    -4.823000000     4.250000000
H    -2.197000000    -4.636000000     5.705000000
O     3.438000000     1.918000000     4.177000000
H     3.898000000     1.248000000     4.682000000
H     4.079000000     2.214000000     3.531000000
O     0.502000000    -3.889000000    -3.248000000
H     0.213000000    -4.406000000    -4.000000000
H    -0.219000000    -3.281000000    -3.085000000
O     2.246000000    -4.029000000    -1.199000000
H     1.577000000    -3.934000000    -1.877000000
H     2.116000000    -4.913000000    -0.856000000
O    -2.923000000     2.482000000    -0.181000000
H    -3.741000000     2.611000000     0.301000000
H    -2.273000000     2.295000000     0.497000000
O     5.667000000     1.716000000     2.201000000
H     5.643000000     1.293000000     1.343000000
H     6.551000000     1.547000000     2.527000000
O    -1.912000000     5.852000000    -0.124000000
H    -1.765000000     4.907000000    -0.084000000
H    -1.821000000     6.147000000     0.782000000
O    -1.644000000    -4.245000000     1.100000000
H    -2.209000000    -4.246000000     1.873000000
H    -2.123000000    -3.725000000     0.454000000
O    -5.617000000     0.732000000     0.342000000
H    -4.888000000     0.190000000     0.644000000
H    -6.379000000     0.392000000     0.811000000
O    -2.786000000    -4.786000000    -3.048000000
H    -2.501000000    -3.873000000    -3.011000000
H    -2.644000000    -5.117000000    -2.161000000
O    -4.228000000    -1.441000000     4.665000000
H    -3.285000000    -1.327000000     4.788000000
H    -4.602000000    -0.586000000     4.875000000
O     3.877000000     4.517000000     0.584000000
H     3.219000000     5.195000000     0.737000000
H     4.699000000     4.998000000     0.491000000
O     4.218000000     2.841000000    -1.507000000
H     4.531000000     2.022000000    -1.122000000
H     3.928000000     3.362000000    -0.758000000
O     1.171000000     3.636000000     5.118000000
H     0.682000000     3.226000000     5.831000000
H     2.057000000     3.285000000     5.203000000
O    -4.756000000    -4.673000000    -0.800000000
H    -5.348000000    -4.586000000    -1.547000000
H    -4.118000000    -3.969000000    -0.918000000
O    -1.416000000    -2.694000000    -5.330000000
H    -0.784000000    -1.979000000    -5.397000000
H    -1.721000000    -2.661000000    -4.423000000
O     1.598000000     5.896000000     3.421000000
H     1.294000000     6.053000000     2.527000000
H     1.424000000     4.967000000     3.573000000
O     3.351000000     0.363000000    -3.795000000
H     3.629000000     0.771000000    -2.976000000
H     3.273000000    -0.568000000    -3.584000000
O    -5.158000000    -4.224000000    -5.903000000
H    -4.234000000    -4.361000000    -5.698000000
H    -5.459000000    -5.070000000    -6.235000000
O     2.875000000    -2.254000000    -3.420000000
H     3.699000000    -2.702000000    -3.226000000
H     2.197000000    -2.880000000    -3.167000000
O     0.935000000     4.043000000    -5.058000000
H     1.825000000     4.016000000    -4.707000000
H     0.379000000     4.189000000    -4.292000000
O    -4.705000000    -7.239000000    -3.421000000
H    -3.959000000    -7.817000000    -3.577000000
H    -4.319000000    -6.367000000    -3.339000000
