158
-3027.88779
C     0.908000000    -0.755000000     0.923000000
H     1.424000000    -1.285000000     1.719000000
C    -0.251000000    -0.087000000     1.279000000
H    -0.583000000    -0.228000000     2.304000000
C    -1.020000000     0.631000000     0.325000000
H    -1.993000000     1.069000000     0.602000000
C    -0.637000000     0.632000000    -0.965000000
H    -1.280000000     1.130000000    -1.686000000
C     0.527000000    -0.064000000    -1.353000000
H     0.818000000    -0.102000000    -2.399000000
C     1.256000000    -0.844000000    -0.468000000
C     2.469000000    -1.574000000    -0.952000000
O     2.891000000    -1.446000000    -2.079000000
O     3.039000000    -2.358000000    -0.184000000
O    -2.295000000     4.972000000     1.503000000
H    -3.118000000     4.486000000     1.449000000
H    -2.413000000     5.710000000     0.906000000
O     3.883000000    -3.269000000    -3.793000000
H     3.508000000    -2.690000000    -3.130000000
H     3.736000000    -2.811000000    -4.621000000
O     0.068000000    -4.088000000     2.492000000
H     0.553000000    -3.998000000     3.313000000
H    -0.759000000    -4.498000000     2.747000000
O     1.258000000     3.412000000    -3.850000000
H     0.579000000     3.616000000    -3.206000000
H     0.886000000     2.702000000    -4.373000000
O    -5.075000000     3.724000000     4.647000000
H    -4.250000000     3.560000000     4.191000000
H    -5.751000000     3.485000000     4.013000000
O    -2.496000000     3.394000000     3.746000000
H    -2.720000000     2.602000000     3.258000000
H    -2.087000000     3.968000000     3.098000000
O     4.480000000    -0.120000000     0.883000000
H     4.643000000    -0.263000000     1.816000000
H     3.932000000    -0.859000000     0.620000000
O    -2.965000000    -1.636000000     3.117000000
H    -3.272000000    -0.729000000     3.111000000
H    -2.720000000    -1.813000000     2.209000000
O    -2.519000000    -1.876000000     0.317000000
H    -1.826000000    -2.505000000     0.116000000
H    -2.233000000    -1.063000000    -0.101000000
O    -1.400000000     5.024000000    -5.175000000
H    -1.299000000     4.774000000    -4.256000000
H    -0.693000000     4.563000000    -5.627000000
O     3.480000000     2.552000000     0.303000000
H     3.964000000     1.734000000     0.411000000
H     3.518000000     2.731000000    -0.637000000
O    -1.443000000    -0.994000000     7.552000000
H    -1.365000000    -0.056000000     7.729000000
H    -1.167000000    -1.090000000     6.641000000
O    -3.331000000     3.767000000    -2.212000000
H    -4.120000000     4.083000000    -1.771000000
H    -3.646000000     3.088000000    -2.808000000
O     6.875000000     0.585000000    -4.688000000
H     6.044000000     0.348000000    -4.276000000
H     7.388000000     0.981000000    -3.984000000
O     4.934000000    -0.764000000     3.455000000
H     4.481000000    -1.602000000     3.359000000
H     5.522000000    -0.893000000     4.199000000
O    -5.650000000     4.574000000    -1.165000000
H    -6.541000000     4.611000000    -1.513000000
H    -5.547000000     5.394000000    -0.682000000
O     1.468000000    -2.818000000     4.645000000
H     2.264000000    -2.835000000     4.114000000
H     1.755000000    -3.093000000     5.516000000
O     5.209000000    -4.637000000     0.019000000
H     4.574000000    -3.926000000    -0.063000000
H     4.771000000    -5.288000000     0.567000000
O     5.492000000    -0.753000000    -2.320000000
H     5.769000000    -1.545000000    -1.858000000
H     4.537000000    -0.761000000    -2.258000000
O    -7.258000000    -2.228000000     2.015000000
H    -7.518000000    -2.418000000     1.114000000
H    -6.331000000    -1.997000000     1.954000000
O     1.472000000    -5.201000000    -4.982000000
H     1.906000000    -6.042000000    -4.842000000
H     1.989000000    -4.576000000    -4.474000000
O     7.084000000    -2.826000000    -0.706000000
H     7.596000000    -3.456000000    -1.213000000
H     6.402000000    -3.352000000    -0.289000000
O     6.619000000     1.243000000    -0.567000000
H     5.989000000     0.772000000    -0.022000000
H     6.666000000     0.732000000    -1.375000000
O     1.895000000    -4.720000000    -0.725000000
H     2.537000000    -4.017000000    -0.623000000
H     2.422000000    -5.505000000    -0.872000000
O    -4.049000000     6.314000000     3.666000000
H    -3.373000000     5.645000000     3.562000000
H    -4.844000000     5.822000000     3.874000000
O    -2.857000000     1.200000000    -5.157000000
H    -3.785000000     1.348000000    -5.342000000
H    -2.557000000     0.641000000    -5.873000000
O    -4.981000000     2.072000000    -0.419000000
H    -5.107000000     1.570000000    -1.225000000
H    -5.241000000     2.964000000    -0.649000000
O     0.017000000     4.030000000     4.864000000
H    -0.727000000     3.428000000     4.884000000
H     0.782000000     3.471000000     5.004000000
O    -0.051000000    -1.478000000    -4.746000000
H    -0.482000000    -2.002000000    -5.421000000
H    -0.429000000    -1.790000000    -3.923000000
O    -0.326000000    -3.334000000    -0.247000000
H     0.461000000    -3.677000000    -0.670000000
H    -0.204000000    -3.533000000     0.682000000
O     3.053000000     0.461000000    -3.936000000
H     2.903000000    -0.221000000    -3.281000000
H     3.472000000     1.172000000    -3.450000000
O     1.528000000    -7.140000000     0.728000000
H     2.476000000    -7.062000000     0.829000000
H     1.255000000    -6.296000000     0.367000000
O    -4.215000000    -2.191000000    -2.895000000
H    -4.155000000    -1.250000000    -2.726000000
H    -4.861000000    -2.268000000    -3.596000000
O    -0.635000000     4.108000000    -2.149000000
H    -1.589000000     4.178000000    -2.113000000
H    -0.400000000     3.630000000    -1.353000000
O     5.291000000    -5.445000000    -3.444000000
H     6.130000000    -5.153000000    -3.087000000
H     4.806000000    -4.637000000    -3.609000000
O    -0.190000000    -6.459000000    -1.658000000
H     0.190000000    -6.875000000    -2.432000000
H     0.486000000    -5.853000000    -1.356000000
O    -0.195000000     1.384000000    -5.282000000
H    -1.128000000     1.455000000    -5.083000000
H    -0.003000000     0.450000000    -5.202000000
O     2.495000000    -1.545000000    -5.747000000
H     1.564000000    -1.660000000    -5.554000000
H     2.730000000    -0.725000000    -5.314000000
O     3.502000000     2.888000000    -2.308000000
H     2.660000000     2.818000000    -2.758000000
H     3.994000000     3.531000000    -2.819000000
O    -1.361000000    -2.462000000    -2.778000000
H    -1.188000000    -2.804000000    -1.901000000
H    -2.294000000    -2.246000000    -2.772000000
O    -4.335000000     1.993000000     2.196000000
H    -4.340000000     2.199000000     1.261000000
H    -4.868000000     1.201000000     2.269000000
O     3.620000000    -3.123000000     2.344000000
H     3.207000000    -2.980000000     1.492000000
H     3.434000000    -4.039000000     2.550000000
O    -4.937000000    -0.655000000     1.019000000
H    -4.228000000    -1.074000000     0.532000000
H    -5.122000000     0.148000000     0.531000000
O    -2.827000000    -3.983000000     4.678000000
H    -2.971000000    -3.265000000     4.061000000
H    -3.660000000    -4.453000000     4.697000000
O     7.651000000    -2.357000000    -3.825000000
H     7.040000000    -1.903000000    -3.244000000
H     8.331000000    -1.709000000    -4.011000000
O    -1.040000000    -1.179000000     4.973000000
H    -0.282000000    -1.733000000     4.784000000
H    -1.722000000    -1.497000000     4.381000000
O    -4.500000000     0.511000000    -3.008000000
H    -3.842000000     0.857000000    -3.611000000
H    -5.337000000     0.771000000    -3.392000000
O     0.732000000     3.013000000     0.185000000
H     0.291000000     2.169000000     0.286000000
H     1.654000000     2.824000000     0.361000000
