158
-3042.58669
C    -0.655000000    -1.120000000    -0.701000000
H    -1.234000000    -1.938000000    -1.123000000
C    -1.137000000    -0.443000000     0.400000000
H    -2.124000000    -0.725000000     0.756000000
C    -0.399000000     0.549000000     1.053000000
H    -0.763000000     1.056000000     1.984000000
C     0.863000000     0.895000000     0.480000000
H     1.337000000     1.736000000     0.979000000
C     1.238000000     0.340000000    -0.776000000
H     2.032000000     0.730000000    -1.408000000
C     0.520000000    -0.707000000    -1.326000000
C     1.015000000    -1.335000000    -2.615000000
O     0.341000000    -2.027000000    -3.280000000
O     2.098000000    -1.028000000    -3.039000000
O    -3.616000000     4.651000000    -1.173000000
H    -3.377000000     5.429000000    -1.678000000
H    -2.806000000     4.144000000    -1.118000000
O    -3.274000000    -5.673000000     0.550000000
H    -2.658000000    -5.811000000    -0.169000000
H    -4.131000000    -5.870000000     0.172000000
O     0.247000000    -4.577000000    -1.233000000
H    -0.506000000    -4.159000000    -1.651000000
H     0.315000000    -5.431000000    -1.659000000
O     1.365000000    -1.833000000     2.277000000
H     1.020000000    -1.001000000     1.953000000
H     2.315000000    -1.740000000     2.212000000
O     4.112000000     1.115000000     2.063000000
H     4.173000000     1.574000000     2.901000000
H     4.267000000     1.793000000     1.406000000
O     6.217000000    -3.390000000    -3.438000000
H     5.498000000    -3.236000000    -4.050000000
H     6.239000000    -4.341000000    -3.329000000
O     3.889000000    -3.001000000    -5.081000000
H     3.304000000    -3.556000000    -4.565000000
H     3.347000000    -2.254000000    -5.336000000
O    -3.837000000    -0.240000000    -0.931000000
H    -2.882000000    -0.231000000    -0.871000000
H    -4.075000000     0.672000000    -1.102000000
O    -3.002000000    -3.564000000     2.261000000
H    -2.087000000    -3.507000000     1.985000000
H    -3.340000000    -4.339000000     1.813000000
O    -4.222000000     1.791000000     5.659000000
H    -3.397000000     1.316000000     5.759000000
H    -4.005000000     2.532000000     5.093000000
O     1.635000000    -1.506000000    -5.877000000
H     1.491000000    -0.625000000    -6.221000000
H     1.413000000    -1.440000000    -4.948000000
O     4.862000000     3.046000000     0.307000000
H     4.441000000     3.760000000    -0.172000000
H     5.794000000     3.144000000     0.112000000
O    -1.569000000    -0.838000000    -5.375000000
H    -0.986000000    -0.299000000    -5.909000000
H    -1.033000000    -1.105000000    -4.629000000
O    -6.339000000    -2.044000000     3.215000000
H    -6.074000000    -2.076000000     2.296000000
H    -7.276000000    -2.238000000     3.201000000
O    -1.166000000     3.861000000     2.349000000
H    -0.807000000     4.702000000     2.067000000
H    -0.993000000     3.270000000     1.616000000
O     0.505000000    -2.291000000     4.774000000
H    -0.449000000    -2.237000000     4.722000000
H     0.790000000    -2.390000000     3.866000000
O    -2.275000000    -2.145000000     4.337000000
H    -2.994000000    -2.124000000     4.969000000
H    -2.640000000    -2.593000000     3.573000000
O    -0.435000000    -3.704000000     1.577000000
H    -0.412000000    -4.000000000     0.667000000
H     0.280000000    -3.071000000     1.641000000
O     3.761000000     4.525000000     3.296000000
H     3.599000000     3.828000000     3.933000000
H     4.679000000     4.414000000     3.049000000
O     1.806000000     4.517000000     1.492000000
H     2.495000000     4.465000000     2.154000000
H     2.277000000     4.572000000     0.660000000
O    -5.930000000    -1.778000000    -0.311000000
H    -6.641000000    -1.167000000    -0.503000000
H    -5.134000000    -1.251000000    -0.389000000
O    -2.548000000    -0.045000000     7.216000000
H    -2.037000000     0.547000000     7.767000000
H    -3.267000000    -0.335000000     7.777000000
O    -3.988000000     0.269000000    -4.307000000
H    -4.004000000     0.500000000    -3.379000000
H    -3.167000000    -0.209000000    -4.421000000
O     4.237000000    -4.850000000    -2.126000000
H     4.688000000    -4.017000000    -1.988000000
H     3.372000000    -4.603000000    -2.453000000
O     4.084000000    -1.501000000     1.299000000
H     3.915000000    -0.575000000     1.475000000
H     4.184000000    -1.550000000     0.348000000
O     1.255000000     1.303000000    -5.280000000
H     0.671000000     1.742000000    -4.662000000
H     1.932000000     1.952000000    -5.472000000
O     4.139000000     0.685000000    -3.963000000
H     4.934000000     0.152000000    -3.941000000
H     3.428000000     0.062000000    -3.810000000
O     0.559000000     2.476000000     7.227000000
H     0.682000000     1.598000000     6.865000000
H     0.475000000     3.042000000     6.460000000
O     0.529000000    -0.206000000     6.639000000
H     0.402000000    -0.859000000     5.950000000
H     0.270000000    -0.654000000     7.444000000
O     1.871000000    -4.217000000    -3.536000000
H     1.423000000    -3.423000000    -3.826000000
H     1.169000000    -4.853000000    -3.399000000
O     2.169000000    -5.540000000     0.285000000
H     1.635000000    -4.922000000    -0.213000000
H     2.788000000    -4.990000000     0.765000000
O    -0.442000000     4.248000000     5.010000000
H    -0.922000000     4.180000000     4.185000000
H     0.279000000     4.849000000     4.819000000
O    -1.372000000     2.602000000    -1.228000000
H    -1.397000000     2.545000000    -2.183000000
H    -0.931000000     1.799000000    -0.951000000
O    -2.505000000    -4.278000000    -6.030000000
H    -1.974000000    -4.041000000    -6.791000000
H    -2.841000000    -3.443000000    -5.704000000
O     0.224000000    -6.491000000    -3.418000000
H     0.089000000    -7.233000000    -2.829000000
H    -0.280000000    -6.712000000    -4.201000000
O    -3.981000000     5.518000000     1.435000000
H    -3.953000000     5.166000000     0.546000000
H    -3.834000000     4.758000000     1.999000000
O     3.902000000     1.896000000     4.650000000
H     3.013000000     1.541000000     4.648000000
H     4.090000000     2.066000000     5.573000000
O     4.416000000    -1.412000000    -1.373000000
H     3.613000000    -1.263000000    -1.874000000
H     5.113000000    -1.065000000    -1.929000000
O    -4.600000000    -3.202000000    -2.506000000
H    -3.669000000    -3.119000000    -2.712000000
H    -4.709000000    -2.714000000    -1.690000000
O    -5.423000000     1.912000000     1.965000000
H    -6.163000000     1.971000000     2.569000000
H    -5.804000000     2.076000000     1.102000000
O     1.065000000     1.858000000     3.981000000
H     0.775000000     2.564000000     3.403000000
H     0.254000000     1.445000000     4.279000000
O    -1.702000000    -3.848000000    -3.180000000
H    -1.889000000    -4.185000000    -4.056000000
H    -1.235000000    -3.027000000    -3.333000000
O     1.792000000     4.633000000    -2.585000000
H     1.484000000     5.328000000    -3.166000000
H     1.028000000     4.410000000    -2.053000000
O     4.389000000     3.205000000    -2.807000000
H     3.541000000     3.622000000    -2.960000000
H     4.247000000     2.285000000    -3.029000000
O    -1.285000000     0.690000000     4.598000000
H    -1.659000000    -0.037000000     4.101000000
H    -1.230000000     0.363000000     5.496000000
O    -3.733000000     3.662000000     3.412000000
H    -4.376000000     3.017000000     3.119000000
H    -2.924000000     3.415000000     2.965000000
O     3.754000000     2.769000000    -5.697000000
H     4.157000000     2.046000000    -5.217000000
H     4.317000000     2.894000000    -6.460000000
O     1.733000000    -4.040000000    -7.246000000
H     1.752000000    -3.394000000    -6.539000000
H     1.497000000    -3.535000000    -8.025000000
