158
-3036.01169
C    -1.019000000    -1.065000000    -0.016000000
H    -1.718000000    -1.849000000     0.263000000
C    -0.787000000    -0.132000000     1.017000000
H    -1.271000000    -0.279000000     1.980000000
C     0.104000000     0.866000000     0.834000000
H     0.228000000     1.564000000     1.686000000
C     0.766000000     1.003000000    -0.363000000
H     1.552000000     1.748000000    -0.457000000
C     0.685000000    -0.015000000    -1.347000000
H     1.353000000     0.022000000    -2.204000000
C    -0.265000000    -1.026000000    -1.177000000
C    -0.457000000    -2.133000000    -2.241000000
O    -1.026000000    -3.181000000    -1.943000000
O     0.287000000    -2.128000000    -3.217000000
O    -2.357000000     6.478000000    -0.526000000
H    -2.084000000     6.088000000     0.305000000
H    -2.774000000     7.303000000    -0.277000000
O     1.179000000    -6.982000000    -1.766000000
H     0.290000000    -7.144000000    -1.452000000
H     1.576000000    -7.852000000    -1.819000000
O    -4.355000000    -6.760000000    -2.735000000
H    -4.477000000    -7.499000000    -3.331000000
H    -3.561000000    -6.328000000    -3.048000000
O     2.223000000    -4.887000000    -6.044000000
H     2.039000000    -3.955000000    -5.931000000
H     1.874000000    -5.298000000    -5.253000000
O    -4.014000000    -1.260000000     1.911000000
H    -4.065000000    -0.315000000     2.054000000
H    -4.534000000    -1.412000000     1.122000000
O    -3.403000000     2.959000000     0.661000000
H    -3.608000000     2.495000000     1.472000000
H    -4.251000000     3.262000000     0.337000000
O     5.338000000     2.375000000    -1.288000000
H     4.859000000     2.301000000    -2.114000000
H     5.440000000     1.471000000    -0.989000000
O     1.592000000     5.957000000     1.536000000
H     1.848000000     5.110000000     1.170000000
H     0.682000000     6.071000000     1.261000000
O    -2.510000000     0.607000000    -4.339000000
H    -3.217000000     0.360000000    -4.935000000
H    -2.768000000     0.237000000    -3.495000000
O    -3.430000000    -4.282000000     1.491000000
H    -3.625000000    -3.396000000     1.797000000
H    -4.219000000    -4.551000000     1.021000000
O    -0.196000000     0.949000000    -6.505000000
H    -0.628000000     0.468000000    -5.800000000
H    -0.895000000     1.463000000    -6.909000000
O    -1.067000000    -3.645000000    -5.136000000
H    -0.450000000    -3.362000000    -5.811000000
H    -0.840000000    -3.121000000    -4.368000000
O     0.044000000    -3.028000000     2.545000000
H     0.316000000    -2.476000000     1.812000000
H    -0.405000000    -3.767000000     2.135000000
O     1.815000000     4.137000000     5.521000000
H     1.445000000     3.254000000     5.521000000
H     1.676000000     4.454000000     6.413000000
O     3.169000000     3.919000000     0.709000000
H     3.631000000     3.830000000    -0.125000000
H     3.615000000     3.308000000     1.296000000
O     4.514000000    -3.818000000    -4.304000000
H     4.718000000    -2.883000000    -4.305000000
H     3.604000000    -3.864000000    -4.010000000
O    -3.446000000    -1.750000000    -2.784000000
H    -2.874000000    -2.433000000    -2.437000000
H    -3.867000000    -1.373000000    -2.011000000
O    -2.146000000    -5.291000000    -3.129000000
H    -1.731000000    -4.638000000    -2.565000000
H    -2.180000000    -4.877000000    -3.991000000
O     2.329000000    -0.152000000     5.488000000
H     2.362000000    -0.121000000     4.532000000
H     2.289000000     0.766000000     5.756000000
O     4.597000000    -1.203000000    -3.293000000
H     4.567000000    -1.085000000    -2.344000000
H     5.049000000    -0.424000000    -3.618000000
O     2.781000000    -2.732000000     4.461000000
H     2.673000000    -1.837000000     4.781000000
H     1.942000000    -3.155000000     4.643000000
O     2.406000000    -1.184000000    -4.749000000
H     3.180000000    -1.002000000    -4.216000000
H     1.763000000    -1.528000000    -4.128000000
O     2.750000000    -0.122000000     2.655000000
H     3.186000000    -0.944000000     2.431000000
H     2.043000000    -0.043000000     2.015000000
O     0.724000000    -6.587000000     0.975000000
H     0.087000000    -5.946000000     0.661000000
H     1.296000000    -6.745000000     0.224000000
O     0.860000000     6.430000000     4.251000000
H     1.141000000     6.308000000     3.344000000
H     1.424000000     5.845000000     4.757000000
O    -0.186000000    -7.106000000    -4.932000000
H    -0.626000000    -7.688000000    -4.313000000
H     0.223000000    -6.437000000    -4.383000000
O    -2.041000000     1.807000000    -1.282000000
H    -1.297000000     1.337000000    -0.905000000
H    -2.499000000     2.175000000    -0.526000000
O    -0.784000000     3.049000000    -4.092000000
H    -0.998000000     3.667000000    -3.393000000
H    -1.183000000     2.225000000    -3.812000000
O    -1.486000000    -1.359000000     4.527000000
H    -2.312000000    -1.833000000     4.432000000
H    -0.837000000    -1.922000000     4.107000000
O    -1.582000000     4.949000000     1.955000000
H    -1.713000000     4.714000000     2.873000000
H    -1.931000000     4.204000000     1.465000000
O    -0.843000000    -4.551000000     0.329000000
H    -1.011000000    -4.042000000    -0.463000000
H    -1.711000000    -4.714000000     0.699000000
O     0.599000000    -2.415000000     6.378000000
H     0.491000000    -1.541000000     6.003000000
H    -0.292000000    -2.758000000     6.449000000
O    -4.134000000    -2.233000000     4.493000000
H    -5.003000000    -2.554000000     4.732000000
H    -4.194000000    -2.053000000     3.555000000
O    -1.578000000     4.958000000     4.686000000
H    -2.137000000     5.588000000     5.142000000
H    -0.755000000     5.426000000     4.545000000
O     3.677000000    -4.461000000    -0.866000000
H     4.417000000    -4.861000000    -1.323000000
H     2.931000000    -4.599000000    -1.449000000
O     4.609000000     1.905000000    -3.835000000
H     5.469000000     1.885000000    -4.254000000
H     4.004000000     2.135000000    -4.540000000
O     4.781000000    -0.522000000    -0.612000000
H     5.472000000    -0.691000000     0.029000000
H     3.968000000    -0.710000000    -0.143000000
O     1.686000000    -4.393000000    -3.140000000
H     1.065000000    -3.666000000    -3.100000000
H     1.232000000    -5.120000000    -2.715000000
O    -5.274000000    -1.329000000    -0.822000000
H    -6.107000000    -1.263000000    -0.354000000
H    -5.444000000    -1.956000000    -1.525000000
O     4.054000000     2.592000000     4.047000000
H     3.453000000     2.816000000     4.757000000
H     3.746000000     1.743000000     3.731000000
O    -1.388000000    -8.124000000    -1.437000000
H    -2.128000000    -8.608000000    -1.070000000
H    -1.722000000    -7.236000000    -1.564000000
O    -3.646000000    -3.291000000    -6.402000000
H    -4.002000000    -4.177000000    -6.343000000
H    -2.881000000    -3.301000000    -5.826000000
O     3.405000000     4.511000000    -1.910000000
H     2.915000000     5.328000000    -2.003000000
H     2.754000000     3.823000000    -2.053000000
O    -2.451000000     0.784000000     6.278000000
H    -2.078000000     0.138000000     5.679000000
H    -3.395000000     0.734000000     6.126000000
O     0.971000000    -2.439000000    -6.914000000
H     1.250000000    -2.266000000    -7.814000000
H     1.453000000    -1.802000000    -6.387000000
O    -4.588000000     1.567000000     2.563000000
H    -5.543000000     1.621000000     2.569000000
H    -4.303000000     2.292000000     3.119000000
O    -0.436000000     2.369000000     5.289000000
H    -1.188000000     1.804000000     5.473000000
H    -0.818000000     3.232000000     5.132000000
O     2.457000000     1.371000000    -6.012000000
H     2.701000000     0.458000000    -5.858000000
H     1.542000000     1.330000000    -6.291000000
