158
-3034.60292
C    -1.403000000    -0.436000000    -0.047000000
H    -2.390000000    -0.887000000     0.015000000
C    -0.775000000     0.065000000     1.070000000
H    -1.418000000     0.046000000     1.947000000
C     0.563000000     0.588000000     0.974000000
H     1.126000000     0.961000000     1.837000000
C     1.218000000     0.496000000    -0.282000000
H     2.269000000     0.727000000    -0.432000000
C     0.586000000    -0.072000000    -1.361000000
H     1.175000000    -0.149000000    -2.272000000
C    -0.767000000    -0.516000000    -1.338000000
C    -1.362000000    -1.182000000    -2.471000000
O    -2.438000000    -1.745000000    -2.365000000
O    -0.810000000    -1.142000000    -3.559000000
O    -2.502000000     2.188000000    -1.023000000
H    -2.458000000     1.453000000    -0.411000000
H    -3.311000000     2.043000000    -1.513000000
O    -5.602000000    -0.280000000     1.540000000
H    -6.320000000    -0.912000000     1.514000000
H    -5.193000000    -0.347000000     0.678000000
O    -3.327000000    -3.784000000    -0.982000000
H    -3.059000000    -2.951000000    -1.368000000
H    -4.270000000    -3.693000000    -0.846000000
O    -3.638000000    -5.527000000     1.399000000
H    -3.420000000    -5.049000000     0.600000000
H    -2.869000000    -5.419000000     1.959000000
O     3.632000000     2.999000000    -0.930000000
H     2.679000000     3.087000000    -0.905000000
H     3.949000000     3.877000000    -1.141000000
O     5.974000000    -0.882000000    -3.585000000
H     6.379000000    -1.707000000    -3.851000000
H     5.197000000    -0.807000000    -4.138000000
O    -1.092000000     3.516000000     7.203000000
H    -1.142000000     2.594000000     6.949000000
H    -1.993000000     3.833000000     7.133000000
O    -0.797000000     3.157000000    -3.150000000
H    -1.511000000     3.475000000    -3.702000000
H    -1.168000000     3.136000000    -2.268000000
O    -4.752000000     0.140000000    -0.957000000
H    -4.880000000    -0.422000000    -1.721000000
H    -4.966000000     1.020000000    -1.267000000
O     4.462000000     0.369000000    -1.027000000
H     4.172000000     1.263000000    -0.848000000
H     4.429000000     0.293000000    -1.981000000
O     1.105000000    -2.414000000    -4.413000000
H     1.568000000    -1.585000000    -4.290000000
H     0.196000000    -2.217000000    -4.186000000
O    -3.130000000     4.341000000     0.458000000
H    -2.394000000     4.411000000     1.065000000
H    -2.900000000     3.610000000    -0.115000000
O     4.680000000    -1.311000000     3.605000000
H     4.326000000    -1.523000000     2.741000000
H     5.184000000    -0.509000000     3.466000000
O    -3.129000000     0.062000000    -4.502000000
H    -3.049000000    -0.820000000    -4.867000000
H    -2.671000000     0.016000000    -3.662000000
O     3.066000000     2.115000000     6.251000000
H     2.832000000     3.004000000     6.516000000
H     2.376000000     1.857000000     5.640000000
O     2.440000000     4.346000000     3.656000000
H     2.090000000     4.252000000     4.542000000
H     1.782000000     4.865000000     3.193000000
O     1.815000000    -4.669000000    -2.618000000
H     1.506000000    -4.131000000    -3.348000000
H     1.712000000    -4.109000000    -1.848000000
O    -6.007000000    -3.087000000    -0.718000000
H    -6.480000000    -2.877000000    -1.524000000
H    -6.459000000    -2.589000000    -0.038000000
O    -5.107000000    -1.472000000    -3.106000000
H    -5.244000000    -2.079000000    -3.834000000
H    -4.250000000    -1.712000000    -2.753000000
O     2.574000000    -1.687000000     6.312000000
H     2.466000000    -2.452000000     5.747000000
H     2.605000000    -0.945000000     5.708000000
O     2.375000000    -3.333000000    -0.195000000
H     2.716000000    -3.957000000     0.445000000
H     2.485000000    -2.478000000     0.221000000
O    -0.410000000     0.745000000    -5.652000000
H     0.340000000     1.191000000    -5.257000000
H    -0.799000000     0.249000000    -4.932000000
O    -0.361000000     0.928000000     6.369000000
H    -0.827000000     0.108000000     6.205000000
H     0.484000000     0.814000000     5.936000000
O     2.778000000    -3.777000000     4.484000000
H     3.083000000    -4.438000000     5.105000000
H     3.128000000    -4.062000000     3.640000000
O     0.765000000     3.667000000    -0.615000000
H     0.361000000     2.834000000    -0.861000000
H     0.342000000     4.314000000    -1.181000000
O    -2.388000000    -0.932000000     5.649000000
H    -2.062000000    -1.512000000     4.961000000
H    -3.102000000    -0.447000000     5.236000000
O    -4.315000000    -5.715000000    -3.347000000
H    -3.612000000    -5.071000000    -3.437000000
H    -4.668000000    -5.810000000    -4.231000000
O     1.824000000     4.537000000     6.413000000
H     0.871000000     4.592000000     6.340000000
H     2.069000000     5.306000000     6.927000000
O    -4.697000000     2.284000000    -4.443000000
H    -4.244000000     1.441000000    -4.471000000
H    -5.080000000     2.379000000    -5.315000000
O    -1.004000000    -2.312000000     3.864000000
H    -0.060000000    -2.238000000     3.722000000
H    -1.251000000    -3.123000000     3.419000000
O    -2.392000000    -3.963000000    -3.948000000
H    -1.570000000    -3.915000000    -4.435000000
H    -2.390000000    -3.180000000    -3.397000000
O    -0.153000000    -2.714000000     7.039000000
H     0.797000000    -2.651000000     7.135000000
H    -0.320000000    -2.461000000     6.131000000
O     4.249000000     5.708000000     1.839000000
H     3.448000000     5.238000000     2.073000000
H     4.907000000     5.378000000     2.451000000
O     3.382000000    -0.233000000    -4.562000000
H     3.022000000    -0.462000000    -5.419000000
H     2.877000000     0.531000000    -4.285000000
O     4.276000000    -1.445000000     1.005000000
H     4.127000000    -0.717000000     0.402000000
H     5.044000000    -1.895000000     0.652000000
O     2.860000000    -0.934000000    -7.122000000
H     3.186000000    -1.119000000    -8.003000000
H     1.913000000    -0.848000000    -7.230000000
O     3.274000000     1.913000000     2.867000000
H     3.222000000     2.867000000     2.920000000
H     3.995000000     1.746000000     2.260000000
O    -0.569000000    -5.098000000    -0.510000000
H    -0.275000000    -5.042000000    -1.419000000
H    -1.365000000    -4.567000000    -0.482000000
O     1.519000000     2.147000000    -4.105000000
H     0.719000000     2.598000000    -3.836000000
H     1.979000000     2.781000000    -4.654000000
O    -4.166000000     0.485000000     4.264000000
H    -4.361000000     0.233000000     3.362000000
H    -4.230000000     1.440000000     4.265000000
O     1.577000000     0.715000000     4.324000000
H     1.337000000    -0.086000000     3.858000000
H     2.343000000     1.046000000     3.854000000
O    -1.864000000     2.740000000    -7.070000000
H    -1.480000000     1.980000000    -6.633000000
H    -2.803000000     2.556000000    -7.089000000
O     5.540000000     2.374000000     1.230000000
H     5.630000000     3.297000000     1.469000000
H     5.157000000     2.391000000     0.353000000
O     1.534000000    -1.850000000     2.943000000
H     1.913000000    -2.627000000     3.355000000
H     1.984000000    -1.781000000     2.101000000
O    -0.174000000     3.120000000     4.094000000
H    -0.761000000     2.499000000     4.527000000
H     0.635000000     2.628000000     3.955000000
O    -0.021000000    -1.371000000    -7.646000000
H    -0.066000000    -0.635000000    -7.037000000
H    -0.737000000    -1.216000000    -8.263000000
O    -2.316000000     5.267000000     3.239000000
H    -2.041000000     6.106000000     3.609000000
H    -1.531000000     4.720000000     3.275000000
O     0.980000000     5.696000000     1.620000000
H     0.952000000     4.960000000     1.009000000
H     0.385000000     6.344000000     1.243000000
