158
-3010.26971
C     1.261000000    -0.549000000     0.496000000
H     2.182000000    -0.954000000     0.908000000
C     0.393000000     0.208000000     1.248000000
H     0.700000000     0.378000000     2.277000000
C    -0.809000000     0.622000000     0.679000000
H    -1.443000000     1.237000000     1.253000000
C    -1.124000000     0.311000000    -0.675000000
H    -2.118000000     0.522000000    -1.059000000
C    -0.226000000    -0.364000000    -1.429000000
H    -0.493000000    -0.596000000    -2.457000000
C     0.994000000    -0.768000000    -0.850000000
C     2.002000000    -1.610000000    -1.649000000
O     3.208000000    -1.786000000    -1.258000000
O     1.794000000    -1.772000000    -2.847000000
O    -5.544000000     5.156000000    -0.364000000
H    -6.400000000     5.200000000    -0.789000000
H    -4.931000000     5.475000000    -1.026000000
O    -2.427000000     4.342000000     2.293000000
H    -2.603000000     5.282000000     2.339000000
H    -2.325000000     4.164000000     1.358000000
O    -0.258000000    -2.556000000     3.665000000
H    -1.094000000    -2.993000000     3.505000000
H     0.242000000    -3.180000000     4.192000000
O    -0.403000000    -5.353000000    -1.656000000
H    -0.103000000    -6.203000000    -1.978000000
H     0.400000000    -4.891000000    -1.416000000
O    -4.119000000     3.647000000     4.753000000
H    -3.982000000     3.908000000     3.842000000
H    -3.802000000     4.390000000     5.266000000
O    -0.526000000     0.632000000    -4.565000000
H    -0.615000000     0.991000000    -3.682000000
H    -0.146000000     1.346000000    -5.076000000
O    -0.363000000    -0.201000000     5.084000000
H    -0.739000000     0.469000000     4.513000000
H    -0.391000000    -1.003000000     4.562000000
O     6.091000000    -4.317000000    -4.452000000
H     6.683000000    -4.514000000    -3.726000000
H     5.643000000    -3.514000000    -4.185000000
O     2.465000000    -3.989000000    -4.602000000
H     2.295000000    -3.403000000    -3.864000000
H     1.845000000    -3.710000000    -5.276000000
O     6.132000000    -2.009000000     4.307000000
H     5.198000000    -1.896000000     4.130000000
H     6.466000000    -1.118000000     4.408000000
O     4.971000000    -1.009000000     0.914000000
H     5.375000000    -1.872000000     0.820000000
H     4.267000000    -1.002000000     0.264000000
O     3.647000000     0.249000000     3.079000000
H     3.673000000     1.023000000     2.517000000
H     4.041000000    -0.445000000     2.550000000
O    -4.652000000    -1.539000000     6.405000000
H    -4.243000000    -1.092000000     5.664000000
H    -4.326000000    -2.437000000     6.352000000
O    -4.131000000    -2.878000000    -1.406000000
H    -4.645000000    -3.595000000    -1.034000000
H    -3.424000000    -2.739000000    -0.775000000
O    -0.292000000     3.184000000    -2.851000000
H     0.093000000     3.128000000    -3.725000000
H    -1.052000000     3.756000000    -2.960000000
O     3.753000000    -6.054000000    -5.648000000
H     4.700000000    -5.944000000    -5.724000000
H     3.440000000    -5.216000000    -5.308000000
O     1.217000000     2.627000000    -5.059000000
H     1.633000000     1.827000000    -4.739000000
H     1.909000000     3.287000000    -5.026000000
O    -0.428000000    -2.551000000    -4.321000000
H    -1.034000000    -1.818000000    -4.217000000
H     0.353000000    -2.287000000    -3.835000000
O     1.941000000    -4.243000000     4.013000000
H     2.070000000    -4.404000000     4.947000000
H     2.771000000    -4.495000000     3.609000000
O     2.464000000     4.635000000     0.410000000
H     2.010000000     3.888000000     0.020000000
H     2.643000000     5.219000000    -0.327000000
O     2.733000000    -0.153000000     5.538000000
H     1.780000000    -0.092000000     5.467000000
H     3.057000000     0.152000000     4.691000000
O     3.079000000     2.508000000    -2.365000000
H     2.822000000     1.836000000    -2.997000000
H     2.428000000     2.439000000    -1.666000000
O     3.160000000    -7.235000000    -1.083000000
H     3.349000000    -7.676000000    -1.911000000
H     3.266000000    -6.304000000    -1.278000000
O     5.186000000    -2.126000000    -3.014000000
H     4.632000000    -1.877000000    -2.275000000
H     4.613000000    -2.052000000    -3.778000000
O     2.311000000     3.884000000     4.513000000
H     1.427000000     3.899000000     4.879000000
H     2.335000000     4.631000000     3.914000000
O     2.477000000     0.535000000    -4.099000000
H     3.304000000     0.256000000    -4.493000000
H     2.117000000    -0.261000000    -3.708000000
O     7.352000000     0.338000000     1.300000000
H     7.612000000     0.212000000     2.212000000
H     6.502000000    -0.097000000     1.231000000
O    -0.379000000     2.668000000     3.239000000
H    -1.057000000     3.228000000     2.861000000
H     0.432000000     2.962000000     2.825000000
O     4.952000000    -0.264000000    -5.174000000
H     5.832000000     0.100000000    -5.268000000
H     4.685000000    -0.479000000    -6.068000000
O    -2.478000000     1.611000000     4.253000000
H    -3.144000000     2.238000000     4.534000000
H    -1.787000000     2.151000000     3.870000000
O    -1.818000000    -2.479000000     0.524000000
H    -1.133000000    -3.121000000     0.711000000
H    -1.535000000    -1.687000000     0.981000000
O    -1.780000000     4.372000000    -0.566000000
H    -2.057000000     4.008000000    -1.407000000
H    -1.388000000     5.217000000    -0.787000000
O     0.487000000    -4.003000000     1.034000000
H     0.950000000    -3.571000000     1.752000000
H     0.340000000    -4.896000000     1.346000000
O     3.242000000    -4.597000000     1.350000000
H     2.504000000    -4.219000000     0.873000000
H     4.003000000    -4.103000000     1.045000000
O    -3.362000000    -0.874000000     4.159000000
H    -3.614000000    -0.901000000     3.236000000
H    -3.109000000     0.037000000     4.312000000
O     7.555000000    -0.894000000    -3.279000000
H     6.737000000    -1.389000000    -3.223000000
H     7.316000000    -0.006000000    -3.015000000
O    -4.664000000    -1.671000000     1.669000000
H    -5.292000000    -1.295000000     1.053000000
H    -3.893000000    -1.866000000     1.137000000
O    -4.229000000     2.335000000    -3.106000000
H    -3.534000000     2.990000000    -3.050000000
H    -4.152000000     1.979000000    -3.991000000
O    -2.530000000    -0.728000000    -5.838000000
H    -3.194000000    -0.043000000    -5.751000000
H    -1.764000000    -0.378000000    -5.382000000
O     3.300000000    -4.655000000    -1.881000000
H     2.814000000    -3.910000000    -1.528000000
H     3.634000000    -4.346000000    -2.723000000
O     4.198000000     2.491000000     1.513000000
H     3.564000000     3.180000000     1.313000000
H     4.812000000     2.510000000     0.779000000
O    -6.526000000     1.799000000    -0.478000000
H    -7.085000000     2.459000000    -0.067000000
H    -5.939000000     2.301000000    -1.043000000
O    -6.413000000    -2.623000000     3.279000000
H    -6.922000000    -1.880000000     3.601000000
H    -5.713000000    -2.227000000     2.760000000
O     0.996000000     2.676000000    -0.463000000
H     0.647000000     1.836000000    -0.168000000
H     0.373000000     2.976000000    -1.124000000
O     5.892000000    -3.472000000     0.708000000
H     5.864000000    -4.181000000     0.066000000
H     6.803000000    -3.447000000     0.999000000
O     0.845000000    -3.117000000    -7.046000000
H     1.200000000    -2.584000000    -7.758000000
H     0.372000000    -2.494000000    -6.494000000
O    -5.693000000    -1.080000000    -2.857000000
H    -5.043000000    -1.631000000    -2.420000000
H    -5.362000000    -0.189000000    -2.751000000
O    -2.086000000    -4.742000000    -3.850000000
H    -1.511000000    -3.994000000    -4.011000000
H    -1.948000000    -4.958000000    -2.928000000
