158
-3045.82345
C     0.206000000    -1.253000000     0.790000000
H     0.282000000    -2.145000000     1.406000000
C    -0.416000000    -0.094000000     1.210000000
H    -0.840000000    -0.063000000     2.210000000
C    -0.437000000     1.080000000     0.431000000
H    -0.800000000     2.016000000     0.843000000
C     0.048000000     1.048000000    -0.814000000
H    -0.088000000     1.873000000    -1.510000000
C     0.532000000    -0.166000000    -1.273000000
H     0.981000000    -0.086000000    -2.260000000
C     0.705000000    -1.315000000    -0.492000000
C     1.378000000    -2.566000000    -1.030000000
O     1.529000000    -3.567000000    -0.349000000
O     1.628000000    -2.670000000    -2.223000000
O     0.004000000     6.188000000     4.353000000
H    -0.817000000     6.209000000     3.860000000
H     0.553000000     6.849000000     3.931000000
O    -3.008000000     5.559000000     3.297000000
H    -2.201000000     5.287000000     2.859000000
H    -3.640000000     5.672000000     2.587000000
O    -4.362000000    -3.614000000     2.515000000
H    -5.149000000    -3.432000000     2.001000000
H    -4.358000000    -2.939000000     3.194000000
O    -0.879000000    -6.707000000    -1.550000000
H    -1.202000000    -7.573000000    -1.299000000
H    -1.624000000    -6.289000000    -1.980000000
O    -0.492000000    -2.642000000    -7.088000000
H    -0.317000000    -2.515000000    -6.155000000
H     0.071000000    -3.374000000    -7.340000000
O    -3.447000000     1.067000000    -2.387000000
H    -3.641000000     2.003000000    -2.343000000
H    -3.611000000     0.831000000    -3.300000000
O     3.633000000     1.569000000    -2.059000000
H     3.842000000     0.701000000    -2.404000000
H     3.331000000     1.405000000    -1.166000000
O     5.293000000    -5.473000000    -2.483000000
H     5.959000000    -5.347000000    -3.158000000
H     4.504000000    -5.068000000    -2.845000000
O     4.809000000     3.218000000     0.909000000
H     4.051000000     2.633000000     0.915000000
H     5.530000000     2.679000000     1.234000000
O    -1.675000000     2.787000000    -4.193000000
H    -2.317000000     2.190000000    -4.579000000
H    -1.936000000     2.859000000    -3.275000000
O    -4.074000000     0.254000000     2.501000000
H    -4.379000000     0.539000000     3.362000000
H    -3.127000000     0.156000000     2.602000000
O    -3.649000000     3.923000000    -2.063000000
H    -2.896000000     4.378000000    -1.685000000
H    -4.263000000     4.622000000    -2.287000000
O     0.467000000     1.463000000    -5.884000000
H     1.263000000     1.099000000    -5.497000000
H    -0.082000000     1.691000000    -5.133000000
O    -0.983000000     5.743000000    -2.245000000
H    -0.977000000     5.697000000    -1.289000000
H    -0.061000000     5.828000000    -2.487000000
O    -0.077000000    -2.943000000    -4.260000000
H    -0.823000000    -2.458000000    -3.909000000
H     0.593000000    -2.879000000    -3.579000000
O     3.950000000    -1.171000000    -5.611000000
H     3.360000000    -0.420000000    -5.668000000
H     4.795000000    -0.836000000    -5.910000000
O     2.302000000    -5.585000000     3.160000000
H     2.845000000    -6.167000000     2.629000000
H     2.861000000    -4.827000000     3.332000000
O    -1.704000000    -2.139000000     3.448000000
H    -1.491000000    -2.265000000     2.523000000
H    -0.929000000    -2.449000000     3.917000000
O     2.348000000     6.949000000    -0.436000000
H     2.061000000     6.934000000    -1.349000000
H     2.067000000     6.105000000    -0.083000000
O     3.035000000     0.227000000     3.560000000
H     3.928000000     0.200000000     3.903000000
H     3.078000000    -0.266000000     2.740000000
O     2.904000000     1.517000000     0.541000000
H     3.344000000     0.671000000     0.622000000
H     2.002000000     1.344000000     0.811000000
O     2.947000000    -7.796000000    -2.858000000
H     3.887000000    -7.829000000    -3.034000000
H     2.883000000    -7.508000000    -1.948000000
O     2.891000000    -4.691000000    -3.301000000
H     2.451000000    -5.488000000    -3.006000000
H     2.380000000    -3.979000000    -2.916000000
O     3.896000000    -1.048000000     1.173000000
H     3.662000000    -1.884000000     1.577000000
H     4.789000000    -1.179000000     0.853000000
O     3.669000000    -1.097000000    -2.771000000
H     3.757000000    -1.267000000    -3.709000000
H     2.909000000    -1.613000000    -2.504000000
O     3.507000000    -7.441000000     1.307000000
H     2.655000000    -7.347000000     0.881000000
H     4.127000000    -7.534000000     0.583000000
O    -6.600000000     4.505000000     2.347000000
H    -6.074000000     5.288000000     2.504000000
H    -6.031000000     3.932000000     1.832000000
O    -0.211000000     4.186000000     6.230000000
H    -0.686000000     4.590000000     6.956000000
H    -0.018000000     4.911000000     5.636000000
O    -0.583000000     2.371000000     4.164000000
H    -0.451000000     2.867000000     4.972000000
H    -1.357000000     1.835000000     4.336000000
O    -3.204000000    -2.135000000    -0.634000000
H    -2.508000000    -1.527000000    -0.384000000
H    -3.021000000    -2.928000000    -0.130000000
O    -0.896000000     5.491000000     0.299000000
H    -1.170000000     6.341000000     0.643000000
H    -0.112000000     5.270000000     0.802000000
O     0.061000000    -4.541000000     1.645000000
H     0.564000000    -4.265000000     0.879000000
H     0.627000000    -5.173000000     2.088000000
O     1.322000000     4.573000000     1.368000000
H     1.660000000     4.377000000     2.241000000
H     1.362000000     3.738000000     0.902000000
O     4.219000000    -4.099000000     0.017000000
H     3.335000000    -4.067000000    -0.349000000
H     4.739000000    -4.546000000    -0.651000000
O    -1.998000000     0.314000000     5.123000000
H    -2.216000000    -0.566000000     4.816000000
H    -2.845000000     0.752000000     5.216000000
O     6.535000000    -1.162000000    -2.116000000
H     7.013000000    -1.978000000    -1.966000000
H     5.615000000    -1.423000000    -2.136000000
O    -6.549000000    -0.316000000     0.894000000
H    -5.739000000    -0.211000000     1.394000000
H    -6.273000000    -0.271000000    -0.021000000
O    -4.797000000     3.077000000     0.687000000
H    -4.325000000     3.281000000    -0.120000000
H    -5.302000000     2.291000000     0.477000000
O    -2.340000000    -1.702000000    -3.291000000
H    -2.862000000    -2.487000000    -3.123000000
H    -2.545000000    -1.117000000    -2.562000000
O     1.672000000    -6.074000000    -0.942000000
H     1.723000000    -5.136000000    -0.761000000
H     0.776000000    -6.210000000    -1.253000000
O     0.984000000    -1.025000000     5.056000000
H     0.086000000    -0.818000000     4.796000000
H     1.529000000    -0.468000000     4.501000000
O     1.979000000     3.270000000     3.749000000
H     1.108000000     2.998000000     4.038000000
H     2.493000000     2.463000000     3.742000000
O     3.641000000     4.463000000    -1.597000000
H     3.805000000     3.530000000    -1.734000000
H     3.553000000     4.554000000    -0.648000000
O     4.206000000    -3.814000000     2.618000000
H     4.125000000    -4.018000000     1.687000000
H     5.149000000    -3.738000000     2.765000000
O     3.392000000    -3.948000000    -5.874000000
H     3.687000000    -3.037000000    -5.873000000
H     3.391000000    -4.200000000    -4.951000000
O    -2.597000000    -4.733000000     0.719000000
H    -1.715000000    -4.461000000     0.974000000
H    -3.125000000    -4.602000000     1.507000000
O    -0.665000000    -5.934000000    -4.468000000
H    -1.605000000    -5.857000000    -4.305000000
H    -0.334000000    -5.039000000    -4.390000000
O     2.948000000     1.601000000    -4.885000000
H     3.493000000     2.352000000    -5.118000000
H     3.184000000     1.406000000    -3.978000000
