158
-3037.53271
C     1.404000000    -0.278000000     0.533000000
H     2.356000000    -0.289000000     1.059000000
C     0.479000000     0.691000000     0.933000000
H     0.710000000     1.330000000     1.781000000
C    -0.756000000     0.840000000     0.384000000
H    -1.458000000     1.624000000     0.774000000
C    -1.180000000    -0.069000000    -0.547000000
H    -2.187000000     0.057000000    -0.936000000
C    -0.285000000    -1.024000000    -1.008000000
H    -0.561000000    -1.622000000    -1.873000000
C     0.968000000    -1.172000000    -0.434000000
C     1.953000000    -2.164000000    -1.002000000
O     1.700000000    -2.613000000    -2.068000000
O     3.174000000    -2.131000000    -0.789000000
O    -2.220000000     4.520000000     0.345000000
H    -2.930000000     4.272000000     0.938000000
H    -2.569000000     4.349000000    -0.530000000
O     0.625000000    -1.437000000    -4.240000000
H     0.896000000    -1.848000000    -3.419000000
H    -0.287000000    -1.705000000    -4.353000000
O    -1.726000000     2.901000000    -3.442000000
H    -1.411000000     2.087000000    -3.834000000
H    -1.446000000     3.585000000    -4.051000000
O    -1.180000000     4.957000000     2.922000000
H    -0.767000000     5.812000000     3.042000000
H    -1.365000000     4.910000000     1.984000000
O     6.422000000    -0.057000000     2.408000000
H     6.415000000    -0.584000000     1.609000000
H     5.612000000    -0.296000000     2.859000000
O    -1.048000000     3.207000000     5.096000000
H    -0.719000000     3.773000000     4.398000000
H    -1.997000000     3.198000000     4.970000000
O    -3.076000000    -1.191000000     2.318000000
H    -3.333000000    -2.112000000     2.362000000
H    -2.157000000    -1.211000000     2.054000000
O    -5.540000000    -2.989000000     0.625000000
H    -4.631000000    -3.060000000     0.334000000
H    -5.754000000    -3.861000000     0.956000000
O     3.492000000     0.485000000    -2.102000000
H     3.634000000     1.104000000    -1.387000000
H     3.218000000    -0.323000000    -1.669000000
O     1.811000000     0.724000000     4.398000000
H     1.079000000     0.112000000     4.319000000
H     2.591000000     0.180000000     4.291000000
O     2.345000000    -2.955000000     2.450000000
H     2.557000000    -3.729000000     1.929000000
H     1.394000000    -2.987000000     2.552000000
O    -4.268000000     3.736000000     2.191000000
H    -4.962000000     4.374000000     2.359000000
H    -4.733000000     2.928000000     1.975000000
O    -0.018000000    -1.578000000     4.859000000
H     0.526000000    -2.190000000     5.354000000
H    -0.273000000    -2.065000000     4.075000000
O     2.552000000    -1.421000000    -6.480000000
H     3.427000000    -1.690000000    -6.200000000
H     1.997000000    -1.580000000    -5.716000000
O    -3.431000000     0.486000000    -3.535000000
H    -2.525000000     0.257000000    -3.330000000
H    -3.713000000    -0.183000000    -4.159000000
O     2.343000000    -5.495000000     1.351000000
H     2.051000000    -5.991000000     0.586000000
H     1.655000000    -5.633000000     2.002000000
O     5.591000000    -0.768000000    -0.124000000
H     5.570000000     0.186000000    -0.198000000
H     4.725000000    -1.050000000    -0.419000000
O     1.687000000    -7.076000000    -0.884000000
H     1.385000000    -7.985000000    -0.877000000
H     2.075000000    -6.959000000    -1.751000000
O     7.350000000    -3.144000000     0.339000000
H     6.742000000    -2.415000000     0.216000000
H     6.907000000    -3.895000000    -0.055000000
O    -7.759000000     1.978000000     0.755000000
H    -7.858000000     2.914000000     0.930000000
H    -6.928000000     1.908000000     0.286000000
O     3.927000000     1.778000000     0.299000000
H     3.530000000     1.550000000     1.140000000
H     4.240000000     2.675000000     0.417000000
O     2.246000000    -6.982000000    -3.469000000
H     1.797000000    -7.732000000    -3.860000000
H     2.404000000    -6.388000000    -4.202000000
O     5.124000000    -4.819000000    -4.773000000
H     4.478000000    -4.288000000    -4.308000000
H     4.628000000    -5.239000000    -5.476000000
O    -0.552000000    -4.712000000    -1.461000000
H     0.142000000    -4.088000000    -1.674000000
H    -0.315000000    -5.506000000    -1.939000000
O    -4.694000000     0.826000000     1.635000000
H    -4.094000000     0.181000000     2.009000000
H    -5.019000000     0.414000000     0.834000000
O    -2.192000000    -2.164000000    -3.773000000
H    -2.258000000    -2.958000000    -4.304000000
H    -2.928000000    -2.222000000    -3.164000000
O    -2.226000000    -4.123000000     1.139000000
H    -1.746000000    -4.227000000     0.317000000
H    -2.609000000    -4.985000000     1.303000000
O     3.070000000     1.666000000    -4.602000000
H     3.176000000     1.070000000    -3.860000000
H     3.589000000     2.435000000    -4.367000000
O     4.058000000    -1.065000000     3.647000000
H     4.232000000    -1.369000000     4.538000000
H     3.602000000    -1.796000000     3.230000000
O    -4.574000000    -2.539000000    -1.995000000
H    -5.462000000    -2.886000000    -2.070000000
H    -4.692000000    -1.644000000    -1.676000000
O     4.898000000    -6.831000000    -1.906000000
H     4.683000000    -5.963000000    -1.567000000
H     4.228000000    -7.004000000    -2.567000000
O     4.505000000    -4.474000000    -0.460000000
H     4.000000000    -4.797000000     0.286000000
H     4.042000000    -3.685000000    -0.740000000
O     0.269000000     1.250000000    -4.926000000
H     0.529000000     0.368000000    -4.660000000
H     1.088000000     1.745000000    -4.951000000
O     0.890000000     2.858000000    -1.522000000
H     0.580000000     2.091000000    -1.040000000
H     0.538000000     2.744000000    -2.405000000
O    -3.234000000    -4.990000000    -1.864000000
H    -2.318000000    -4.741000000    -1.737000000
H    -3.658000000    -4.192000000    -2.179000000
O    -3.675000000     2.440000000     4.646000000
H    -3.281000000     1.573000000     4.551000000
H    -3.989000000     2.658000000     3.768000000
O     0.266000000     5.511000000    -0.671000000
H    -0.602000000     5.547000000    -0.269000000
H     0.377000000     4.594000000    -0.921000000
O    -0.556000000    -3.590000000     3.173000000
H    -1.016000000    -3.572000000     2.334000000
H    -0.850000000    -4.400000000     3.590000000
O    -3.789000000    -0.271000000     4.849000000
H    -4.618000000    -0.748000000     4.876000000
H    -3.409000000    -0.499000000     4.000000000
O     3.891000000    -2.342000000    -3.977000000
H     4.444000000    -1.823000000    -3.393000000
H     3.070000000    -2.449000000    -3.497000000
O    -0.512000000     0.719000000     6.229000000
H    -0.836000000     1.479000000     5.746000000
H    -0.343000000     0.061000000     5.555000000
O    -5.174000000     0.126000000    -1.231000000
H    -4.715000000     0.404000000    -2.024000000
H    -6.101000000     0.147000000    -1.471000000
O    -3.975000000     5.327000000     4.609000000
H    -3.618000000     4.681000000     4.000000000
H    -3.758000000     4.985000000     5.476000000
O     7.287000000    -1.928000000    -2.143000000
H     6.810000000    -1.937000000    -1.313000000
H     7.349000000    -2.849000000    -2.393000000
O     2.528000000     3.366000000     4.147000000
H     3.436000000     3.090000000     4.024000000
H     2.031000000     2.549000000     4.176000000
O     2.356000000    -5.373000000    -5.627000000
H     1.728000000    -4.659000000    -5.513000000
H     2.211000000    -5.678000000    -6.522000000
O    -3.460000000     4.191000000    -1.940000000
H    -4.311000000     3.904000000    -2.270000000
H    -2.829000000     3.840000000    -2.569000000
O     3.077000000     4.110000000    -2.081000000
H     2.269000000     3.717000000    -1.751000000
H     3.523000000     4.435000000    -1.299000000
