158
-3000.97420
C    -1.258000000     0.663000000    -0.344000000
H    -2.129000000     1.222000000    -0.676000000
C     0.051000000     1.131000000    -0.544000000
H     0.120000000     2.133000000    -0.960000000
C     1.194000000     0.329000000    -0.239000000
H     2.165000000     0.678000000    -0.388000000
C     0.991000000    -0.941000000     0.207000000
H     1.902000000    -1.378000000     0.608000000
C    -0.267000000    -1.449000000     0.461000000
H    -0.358000000    -2.438000000     0.901000000
C    -1.410000000    -0.636000000     0.201000000
C    -2.869000000    -0.948000000     0.603000000
O    -3.756000000    -0.202000000     0.285000000
O    -3.174000000    -2.021000000     0.993000000
O    -5.171000000    -2.576000000    -0.830000000
H    -4.390000000    -2.363000000    -0.319000000
H    -5.667000000    -1.758000000    -0.863000000
O    -5.911000000    -1.176000000     5.522000000
H    -5.870000000    -0.913000000     4.602000000
H    -5.404000000    -0.509000000     5.984000000
O    -1.692000000    -2.153000000    -3.916000000
H    -1.176000000    -1.459000000    -3.506000000
H    -1.530000000    -2.924000000    -3.373000000
O     3.122000000     3.328000000    -3.073000000
H     3.612000000     3.551000000    -3.864000000
H     2.203000000     3.393000000    -3.333000000
O    -8.479000000     0.682000000     2.617000000
H    -9.227000000     0.297000000     3.074000000
H    -7.839000000    -0.027000000     2.567000000
O    -2.273000000    -4.656000000    -2.100000000
H    -1.933000000    -5.405000000    -2.588000000
H    -3.091000000    -4.972000000    -1.715000000
O    -0.175000000     0.268000000    -3.272000000
H    -0.730000000     0.871000000    -3.766000000
H    -0.158000000     0.630000000    -2.386000000
O     2.138000000    -3.968000000    -1.902000000
H     1.825000000    -3.188000000    -2.360000000
H     1.490000000    -4.118000000    -1.214000000
O     0.599000000     3.512000000    -3.955000000
H    -0.032000000     4.228000000    -4.027000000
H     0.394000000     2.937000000    -4.693000000
O     2.012000000    -1.665000000    -3.404000000
H     1.167000000    -1.223000000    -3.494000000
H     2.652000000    -0.953000000    -3.373000000
O     4.714000000    -4.240000000    -2.137000000
H     4.744000000    -4.638000000    -1.267000000
H     3.829000000    -3.880000000    -2.206000000
O    -3.726000000     2.908000000     1.170000000
H    -3.784000000     3.497000000     1.922000000
H    -3.678000000     2.033000000     1.555000000
O     4.827000000    -1.708000000     1.367000000
H     4.103000000    -1.321000000     1.858000000
H     5.114000000    -2.446000000     1.905000000
O     4.310000000     1.860000000    -0.887000000
H     3.963000000     2.028000000    -0.011000000
H     3.758000000     2.382000000    -1.469000000
O     0.754000000     3.310000000     2.199000000
H     0.454000000     2.402000000     2.239000000
H     0.002000000     3.824000000     2.492000000
O    -7.777000000     2.563000000     0.640000000
H    -8.320000000     2.007000000     1.199000000
H    -6.931000000     2.599000000     1.087000000
O    -5.574000000    -4.978000000    -2.145000000
H    -5.417000000    -4.057000000    -1.937000000
H    -5.253000000    -5.455000000    -1.380000000
O    -4.196000000     0.366000000    -2.497000000
H    -3.549000000     1.057000000    -2.640000000
H    -4.088000000     0.124000000    -1.577000000
O    -4.814000000    -4.226000000     1.665000000
H    -4.442000000    -3.451000000     1.246000000
H    -4.947000000    -4.846000000     0.948000000
O    -1.139000000     5.132000000     1.643000000
H    -0.998000000     5.674000000     0.867000000
H    -2.008000000     4.752000000     1.514000000
O    -3.866000000     1.892000000     3.762000000
H    -2.955000000     2.073000000     3.992000000
H    -4.376000000     2.467000000     4.333000000
O    -1.482000000     5.011000000    -4.170000000
H    -2.303000000     5.412000000    -3.884000000
H    -1.345000000     5.350000000    -5.055000000
O    -6.337000000    -0.152000000     0.263000000
H    -5.394000000     0.012000000     0.261000000
H    -6.708000000     0.571000000    -0.243000000
O    -0.211000000     0.539000000     2.841000000
H    -0.393000000     0.026000000     3.628000000
H    -0.246000000    -0.098000000     2.127000000
O     2.249000000     5.284000000     0.980000000
H     1.824000000     5.381000000     0.128000000
H     1.768000000     4.576000000     1.409000000
O     2.586000000    -1.286000000     3.066000000
H     2.300000000    -0.397000000     2.856000000
H     3.088000000    -1.190000000     3.876000000
O     5.375000000    -0.658000000    -1.197000000
H     4.850000000     0.138000000    -1.278000000
H     5.065000000    -1.069000000    -0.390000000
O    -2.606000000     2.463000000    -3.257000000
H    -1.937000000     3.070000000    -3.574000000
H    -3.142000000     2.987000000    -2.661000000
O     2.440000000    -6.421000000     0.695000000
H     1.920000000    -7.161000000     1.011000000
H     1.794000000    -5.747000000     0.483000000
O     0.910000000     5.061000000    -1.722000000
H     0.662000000     4.842000000    -2.621000000
H     0.161000000     5.547000000    -1.379000000
O    -4.265000000    -5.855000000     4.132000000
H    -4.305000000    -5.173000000     3.461000000
H    -5.082000000    -6.342000000     4.028000000
O    -0.360000000    -4.474000000     2.778000000
H    -1.109000000    -3.877000000     2.796000000
H     0.024000000    -4.403000000     3.652000000
O     5.577000000     2.817000000     3.502000000
H     5.394000000     3.756000000     3.523000000
H     5.243000000     2.488000000     4.336000000
O    -3.941000000     4.022000000    -1.356000000
H    -3.778000000     3.782000000    -0.444000000
H    -4.869000000     3.828000000    -1.492000000
O     8.135000000     0.293000000    -0.514000000
H     7.713000000     0.457000000     0.329000000
H     7.448000000    -0.100000000    -1.053000000
O    -0.794000000    -0.893000000     4.857000000
H    -0.794000000    -0.981000000     5.810000000
H    -1.303000000    -1.643000000     4.548000000
O    -7.606000000    -3.417000000     1.481000000
H    -7.793000000    -3.996000000     0.742000000
H    -6.793000000    -2.975000000     1.240000000
O    -5.632000000    -1.571000000    -4.391000000
H    -5.102000000    -0.958000000    -3.881000000
H    -5.032000000    -2.284000000    -4.609000000
O     5.262000000     5.119000000    -1.824000000
H     5.883000000     4.395000000    -1.901000000
H     4.407000000     4.720000000    -1.988000000
O     6.546000000     0.748000000     1.786000000
H     6.195000000     1.463000000     2.318000000
H     5.778000000     0.365000000     1.362000000
O    -7.105000000     1.158000000    -2.145000000
H    -6.282000000     0.685000000    -2.267000000
H    -7.028000000     1.924000000    -2.714000000
O     6.819000000     2.906000000    -1.124000000
H     6.066000000     2.432000000    -0.773000000
H     6.963000000     2.521000000    -1.989000000
O    -0.036000000    -5.005000000     0.162000000
H    -0.839000000    -5.040000000    -0.358000000
H    -0.324000000    -4.724000000     1.030000000
O     6.920000000    -1.520000000    -3.327000000
H     6.269000000    -1.282000000    -2.667000000
H     6.420000000    -1.971000000    -4.006000000
O    -5.487000000    -0.097000000     2.911000000
H    -4.843000000     0.606000000     2.993000000
H    -5.679000000    -0.137000000     1.974000000
O     3.270000000     1.787000000     1.782000000
H     2.375000000     2.097000000     1.918000000
H     3.579000000     1.556000000     2.658000000
O     3.013000000    -4.310000000     3.534000000
H     2.557000000    -3.718000000     2.936000000
H     3.936000000    -4.075000000     3.446000000
O    -2.283000000    -2.611000000     3.237000000
H    -2.587000000    -2.275000000     2.394000000
H    -3.057000000    -3.015000000     3.627000000
