158
-3056.71601
C     1.084000000    -0.029000000    -1.085000000
H     1.921000000    -0.056000000    -1.778000000
C     1.275000000    -0.487000000     0.183000000
H     2.225000000    -0.887000000     0.528000000
C     0.221000000    -0.456000000     1.097000000
H     0.384000000    -0.836000000     2.072000000
C    -1.076000000    -0.003000000     0.727000000
H    -1.880000000     0.036000000     1.458000000
C    -1.263000000     0.561000000    -0.504000000
H    -2.275000000     0.865000000    -0.756000000
C    -0.194000000     0.576000000    -1.454000000
C    -0.441000000     1.041000000    -2.863000000
O     0.515000000     1.200000000    -3.622000000
O    -1.502000000     1.562000000    -3.079000000
O    -1.254000000     5.516000000    -3.606000000
H    -0.846000000     5.127000000    -4.379000000
H    -1.859000000     6.170000000    -3.957000000
O     0.193000000    -1.682000000     4.520000000
H     0.619000000    -2.148000000     3.800000000
H     0.722000000    -1.895000000     5.289000000
O     1.418000000    -3.225000000     2.735000000
H     1.958000000    -2.494000000     2.434000000
H     1.584000000    -3.922000000     2.100000000
O    -5.167000000     3.904000000    -2.144000000
H    -4.679000000     3.541000000    -2.883000000
H    -5.231000000     4.840000000    -2.335000000
O    -4.460000000     1.709000000     5.658000000
H    -4.129000000     0.999000000     5.109000000
H    -4.068000000     1.551000000     6.517000000
O     3.624000000     0.854000000    -6.489000000
H     3.413000000     1.572000000    -5.893000000
H     4.529000000     0.625000000    -6.277000000
O    -0.801000000     0.578000000    -7.662000000
H    -1.564000000     1.009000000    -7.278000000
H    -0.750000000     0.929000000    -8.551000000
O     1.799000000    -0.780000000    -4.614000000
H     2.189000000    -0.451000000    -5.424000000
H     1.325000000    -0.029000000    -4.255000000
O     6.154000000     0.197000000    -0.957000000
H     6.028000000     0.216000000    -1.905000000
H     5.425000000    -0.328000000    -0.628000000
O     0.299000000     2.618000000    -5.824000000
H     0.084000000     1.989000000    -6.513000000
H     0.332000000     2.094000000    -5.024000000
O     3.850000000     1.220000000     2.053000000
H     3.746000000     0.369000000     2.478000000
H     3.099000000     1.731000000     2.356000000
O     5.282000000     2.980000000    -0.172000000
H     6.083000000     2.518000000     0.074000000
H     4.599000000     2.579000000     0.367000000
O    -4.465000000    -2.359000000     0.899000000
H    -4.467000000    -2.242000000    -0.052000000
H    -3.543000000    -2.489000000     1.121000000
O    -0.479000000     3.654000000    -1.477000000
H    -0.726000000     4.441000000    -1.963000000
H    -1.000000000     2.955000000    -1.872000000
O    -2.170000000    -2.216000000     3.450000000
H    -1.455000000    -2.000000000     4.049000000
H    -1.732000000    -2.490000000     2.644000000
O    -3.542000000    -2.356000000    -1.690000000
H    -3.161000000    -3.046000000    -2.234000000
H    -3.529000000    -1.578000000    -2.247000000
O    -0.930000000     0.888000000     4.312000000
H    -1.870000000     0.717000000     4.245000000
H    -0.540000000     0.026000000     4.461000000
O    -1.132000000     4.758000000     1.069000000
H    -0.984000000     4.085000000     0.405000000
H    -0.299000000     5.225000000     1.128000000
O     3.892000000    -4.305000000    -1.184000000
H     2.959000000    -4.209000000    -0.993000000
H     3.922000000    -4.575000000    -2.102000000
O     2.040000000    -2.367000000     6.441000000
H     2.601000000    -3.101000000     6.189000000
H     2.538000000    -1.906000000     7.116000000
O     4.634000000    -2.557000000    -4.670000000
H     4.050000000    -2.544000000    -5.428000000
H     4.503000000    -1.706000000    -4.252000000
O     4.936000000    -2.117000000    -0.070000000
H     4.786000000    -2.597000000     0.744000000
H     4.626000000    -2.709000000    -0.757000000
O    -1.568000000    -3.099000000     0.443000000
H    -1.551000000    -2.422000000    -0.234000000
H    -1.850000000    -3.890000000    -0.016000000
O     3.078000000     2.618000000    -3.483000000
H     2.247000000     2.149000000    -3.550000000
H     2.853000000     3.531000000    -3.665000000
O    -0.787000000     3.806000000     4.464000000
H    -0.013000000     3.561000000     4.972000000
H    -1.020000000     3.011000000     3.985000000
O     3.553000000    -1.168000000     3.871000000
H     3.645000000    -0.628000000     4.656000000
H     3.462000000    -2.061000000     4.204000000
O    -3.147000000     3.408000000    -4.036000000
H    -2.605000000     4.142000000    -3.747000000
H    -2.709000000     2.633000000    -3.684000000
O     4.166000000    -3.595000000     5.366000000
H     4.985000000    -3.192000000     5.076000000
H     4.438000000    -4.396000000     5.812000000
O     1.100000000    -3.439000000    -0.889000000
H     0.945000000    -2.496000000    -0.933000000
H     0.987000000    -3.657000000     0.036000000
O    -4.340000000     3.009000000     2.894000000
H    -3.889000000     3.852000000     2.941000000
H    -4.663000000     2.860000000     3.783000000
O     1.223000000     5.396000000    -6.052000000
H     0.828000000     4.533000000    -5.923000000
H     1.734000000     5.308000000    -6.856000000
O    -2.105000000    -4.844000000     4.666000000
H    -2.360000000    -3.924000000     4.594000000
H    -2.803000000    -5.322000000     4.217000000
O    -4.319000000     2.232000000     0.167000000
H    -4.843000000     2.936000000    -0.216000000
H    -4.415000000     2.349000000     1.112000000
O     1.762000000    -5.395000000     1.281000000
H     2.489000000    -5.784000000     1.765000000
H     1.328000000    -6.138000000     0.861000000
O    -3.862000000    -0.327000000     4.076000000
H    -3.400000000    -1.105000000     3.765000000
H    -4.697000000    -0.342000000     3.608000000
O     5.138000000    -0.181000000    -3.429000000
H     4.573000000     0.588000000    -3.351000000
H     5.893000000     0.126000000    -3.932000000
O     0.023000000    -6.249000000     3.571000000
H     0.730000000    -5.696000000     3.238000000
H    -0.661000000    -5.632000000     3.832000000
O    -6.222000000    -0.875000000     2.641000000
H    -5.667000000    -1.185000000     1.926000000
H    -6.954000000    -0.438000000     2.204000000
O    -5.456000000     0.229000000    -1.677000000
H    -4.827000000    -0.098000000    -2.321000000
H    -4.917000000     0.661000000    -1.014000000
O    -2.595000000     2.548000000    -6.748000000
H    -3.015000000     2.802000000    -5.926000000
H    -2.061000000     3.305000000    -6.988000000
O     0.850000000    -3.174000000    -3.875000000
H     1.313000000    -3.437000000    -3.079000000
H     1.105000000    -2.262000000    -4.010000000
O     3.425000000     0.367000000     6.006000000
H     2.509000000     0.565000000     5.813000000
H     3.577000000     0.752000000     6.869000000
O     2.143000000     3.255000000    -0.403000000
H     1.286000000     2.932000000    -0.680000000
H     2.667000000     3.262000000    -1.204000000
O     1.260000000     1.895000000     2.637000000
H     0.401000000     1.566000000     2.901000000
H     1.200000000     1.985000000     1.686000000
O    -0.115000000     1.663000000     7.601000000
H     0.234000000     1.772000000     6.717000000
H    -0.504000000     0.788000000     7.599000000
O    -3.487000000    -0.142000000    -3.521000000
H    -2.755000000     0.449000000    -3.341000000
H    -3.262000000    -0.552000000    -4.356000000
O     1.497000000     2.644000000     5.444000000
H     1.661000000     2.622000000     4.501000000
H     2.227000000     3.151000000     5.801000000
O     4.921000000    -3.695000000     2.286000000
H     5.507000000    -4.366000000     1.935000000
H     5.455000000    -3.221000000     2.924000000
