158
-3022.72158
C    -0.181000000     1.149000000    -0.871000000
H    -0.295000000     1.997000000    -1.542000000
C     1.045000000     0.583000000    -0.599000000
H     1.939000000     1.008000000    -1.049000000
C     1.079000000    -0.466000000     0.312000000
H     2.110000000    -0.811000000     0.618000000
C    -0.096000000    -0.984000000     0.917000000
H    -0.015000000    -1.772000000     1.662000000
C    -1.335000000    -0.490000000     0.514000000
H    -2.220000000    -0.994000000     0.894000000
C    -1.370000000     0.640000000    -0.288000000
C    -2.629000000     1.303000000    -0.672000000
O    -2.627000000     2.045000000    -1.545000000
O    -3.728000000     0.966000000    -0.321000000
O    -1.098000000     5.300000000     0.175000000
H    -0.306000000     4.800000000     0.372000000
H    -0.943000000     5.659000000    -0.699000000
O    -7.410000000     1.638000000     1.438000000
H    -7.388000000     2.039000000     2.307000000
H    -6.507000000     1.361000000     1.280000000
O    -2.171000000    -3.473000000     3.385000000
H    -2.639000000    -2.656000000     3.553000000
H    -1.318000000    -3.351000000     3.803000000
O    -7.694000000     3.709000000    -2.155000000
H    -6.798000000     3.380000000    -2.081000000
H    -7.799000000     4.291000000    -1.403000000
O     2.991000000     0.308000000    -4.729000000
H     2.534000000     1.143000000    -4.634000000
H     3.914000000     0.549000000    -4.817000000
O    -1.815000000    -1.422000000    -2.691000000
H    -0.916000000    -1.532000000    -2.379000000
H    -2.322000000    -2.062000000    -2.192000000
O    -0.309000000     0.911000000    -5.262000000
H    -0.546000000     1.296000000    -4.418000000
H    -0.301000000     1.650000000    -5.869000000
O     0.909000000    -1.869000000    -2.574000000
H     1.671000000    -1.310000000    -2.427000000
H     1.218000000    -2.539000000    -3.185000000
O    -0.886000000    -6.761000000    -0.470000000
H    -0.804000000    -5.822000000    -0.305000000
H    -0.313000000    -6.923000000    -1.220000000
O     4.725000000     0.436000000     1.613000000
H     4.097000000     0.062000000     2.231000000
H     5.180000000     1.113000000     2.114000000
O    -1.605000000     3.392000000    -3.684000000
H    -2.021000000     3.445000000    -4.545000000
H    -2.211000000     2.871000000    -3.157000000
O     3.831000000     3.027000000     1.184000000
H     3.611000000     2.117000000     1.382000000
H     4.781000000     3.024000000     1.067000000
O     3.475000000     3.614000000    -1.822000000
H     2.680000000     3.398000000    -2.310000000
H     3.862000000     2.766000000    -1.607000000
O     2.281000000     0.729000000     3.141000000
H     1.496000000     1.174000000     2.822000000
H     2.001000000    -0.175000000     3.286000000
O    -1.037000000     5.901000000    -2.634000000
H    -1.341000000     5.009000000    -2.803000000
H    -1.719000000     6.460000000    -3.006000000
O    -5.318000000     3.654000000    -3.846000000
H    -5.908000000     2.913000000    -3.977000000
H    -5.204000000     4.028000000    -4.720000000
O    -5.213000000     4.697000000     2.109000000
H    -4.608000000     4.477000000     1.401000000
H    -5.073000000     5.631000000     2.262000000
O     4.453000000    -4.547000000     4.567000000
H     4.939000000    -5.342000000     4.785000000
H     4.002000000    -4.759000000     3.750000000
O    -3.595000000     0.401000000    -3.543000000
H    -2.918000000    -0.275000000    -3.519000000
H    -3.287000000     1.070000000    -2.932000000
O    -6.340000000    -0.816000000     2.497000000
H    -5.645000000    -0.159000000     2.542000000
H    -6.732000000    -0.692000000     1.633000000
O    -5.495000000    -2.018000000    -3.130000000
H    -4.779000000    -1.506000000    -3.507000000
H    -5.193000000    -2.925000000    -3.180000000
O     1.722000000    -4.014000000     1.015000000
H     0.795000000    -4.208000000     0.877000000
H     2.082000000    -3.926000000     0.132000000
O    -4.496000000    -0.006000000    -6.288000000
H    -3.875000000     0.362000000    -6.917000000
H    -4.169000000     0.277000000    -5.434000000
O    -3.487000000     4.007000000     0.034000000
H    -2.633000000     4.362000000    -0.212000000
H    -3.534000000     3.163000000    -0.416000000
O     2.947000000    -3.808000000    -1.465000000
H     3.225000000    -2.892000000    -1.476000000
H     3.563000000    -4.252000000    -2.047000000
O     3.765000000     1.301000000     5.346000000
H     3.469000000     0.720000000     6.046000000
H     3.082000000     1.239000000     4.678000000
O    -5.777000000     1.384000000    -2.057000000
H    -5.211000000     1.327000000    -1.287000000
H    -5.206000000     1.156000000    -2.791000000
O    -4.505000000    -4.759000000     2.283000000
H    -5.082000000    -4.184000000     2.786000000
H    -3.626000000    -4.415000000     2.442000000
O    -0.213000000     1.879000000     2.323000000
H    -0.784000000     1.383000000     2.910000000
H    -0.274000000     1.419000000     1.485000000
O     1.266000000     3.779000000    -3.545000000
H     0.352000000     3.530000000    -3.406000000
H     1.371000000     3.787000000    -4.496000000
O     1.066000000     3.862000000     0.795000000
H     1.964000000     3.546000000     0.899000000
H     0.534000000     3.239000000     1.290000000
O     5.146000000     1.070000000    -1.694000000
H     5.628000000     1.536000000    -1.011000000
H     5.749000000     1.042000000    -2.437000000
O    -3.340000000    -3.138000000    -0.625000000
H    -3.784000000    -3.843000000    -1.095000000
H    -4.042000000    -2.675000000    -0.168000000
O    -1.817000000     0.942000000     4.196000000
H    -2.428000000     1.678000000     4.252000000
H    -2.378000000     0.167000000     4.166000000
O     1.611000000     6.421000000    -2.623000000
H     2.126000000     5.616000000    -2.574000000
H     0.744000000     6.171000000    -2.303000000
O     4.892000000    -1.507000000     4.196000000
H     5.720000000    -1.227000000     3.805000000
H     5.139000000    -2.203000000     4.805000000
O     3.528000000    -1.107000000    -2.264000000
H     3.508000000    -1.028000000    -3.217000000
H     4.217000000    -0.502000000    -1.988000000
O    -1.313000000    -6.403000000     2.474000000
H    -1.522000000    -5.489000000     2.665000000
H    -1.436000000    -6.485000000     1.529000000
O    -0.578000000    -4.110000000    -0.166000000
H    -0.214000000    -3.893000000    -1.024000000
H    -1.355000000    -3.557000000    -0.088000000
O    -3.772000000    -1.216000000     4.395000000
H    -3.624000000    -1.612000000     5.254000000
H    -4.716000000    -1.062000000     4.361000000
O     6.320000000    -1.470000000     0.254000000
H     5.481000000    -1.036000000     0.405000000
H     6.579000000    -1.798000000     1.114000000
O    -4.565000000     1.132000000     1.942000000
H    -4.180000000     1.948000000     2.259000000
H    -4.182000000     1.008000000     1.074000000
O    -0.680000000    -1.717000000    -5.219000000
H    -0.638000000    -0.772000000    -5.368000000
H    -0.952000000    -1.804000000    -4.306000000
O     3.564000000    -5.671000000     2.150000000
H     3.012000000    -5.074000000     1.645000000
H     4.237000000    -5.955000000     1.532000000
O     2.188000000    -2.478000000     3.101000000
H     2.253000000    -2.951000000     2.272000000
H     3.092000000    -2.404000000     3.406000000
O    -5.736000000    -1.036000000    -0.647000000
H    -5.065000000    -0.353000000    -0.620000000
H    -5.652000000    -1.419000000    -1.520000000
O     0.200000000    -2.922000000     4.707000000
H     0.861000000    -2.645000000     4.072000000
H     0.110000000    -2.175000000     5.299000000
O    -5.253000000     6.124000000    -2.810000000
H    -4.822000000     6.052000000    -1.958000000
H    -5.321000000     5.222000000    -3.121000000
