158
-3020.92518
C    -0.678000000     0.934000000    -0.831000000
H    -1.177000000     1.642000000    -1.488000000
C     0.714000000     0.953000000    -0.594000000
H     1.301000000     1.709000000    -1.109000000
C     1.231000000    -0.005000000     0.158000000
H     2.250000000    -0.109000000     0.393000000
C     0.421000000    -0.978000000     0.768000000
H     0.778000000    -1.765000000     1.427000000
C    -0.972000000    -1.045000000     0.471000000
H    -1.709000000    -1.773000000     0.803000000
C    -1.510000000    -0.045000000    -0.294000000
C    -2.990000000     0.041000000    -0.492000000
O    -3.468000000     0.932000000    -1.189000000
O    -3.765000000    -0.521000000     0.289000000
O    -1.228000000     4.463000000     1.356000000
H    -0.930000000     5.273000000     1.771000000
H    -0.777000000     3.769000000     1.837000000
O    -7.690000000     2.527000000     1.694000000
H    -7.576000000     3.451000000     1.473000000
H    -6.851000000     2.123000000     1.474000000
O    -7.325000000     2.504000000    -1.720000000
H    -6.893000000     1.855000000    -2.276000000
H    -6.610000000     2.926000000    -1.244000000
O     4.320000000     0.989000000    -5.033000000
H     4.680000000     1.648000000    -4.439000000
H     4.176000000     1.460000000    -5.854000000
O     0.872000000     4.267000000     4.012000000
H     0.611000000     4.936000000     3.378000000
H     0.864000000     3.450000000     3.514000000
O     1.706000000    -0.724000000    -4.489000000
H     2.578000000    -0.536000000    -4.838000000
H     1.294000000     0.136000000    -4.398000000
O     0.326000000    -2.257000000    -2.324000000
H     0.206000000    -1.840000000    -3.177000000
H     0.401000000    -1.527000000    -1.709000000
O     6.036000000    -1.875000000     0.735000000
H     5.413000000    -2.360000000     1.277000000
H     6.131000000    -1.031000000     1.177000000
O    -0.645000000     4.083000000    -1.850000000
H    -1.437000000     3.992000000    -2.379000000
H    -0.889000000     3.735000000    -0.992000000
O     3.949000000     1.280000000     1.830000000
H     3.470000000     0.512000000     2.141000000
H     4.822000000     0.948000000     1.617000000
O     4.200000000     4.723000000    -1.313000000
H     3.823000000     4.300000000    -2.085000000
H     3.480000000     4.757000000    -0.683000000
O     3.582000000    -1.048000000     3.739000000
H     2.777000000    -1.255000000     4.212000000
H     4.027000000    -1.890000000     3.642000000
O     1.613000000     5.374000000    -0.929000000
H     1.589000000     4.662000000    -0.291000000
H     0.826000000     5.249000000    -1.459000000
O    -2.703000000     4.626000000    -3.895000000
H    -3.027000000     3.729000000    -3.815000000
H    -2.502000000     4.726000000    -4.826000000
O    -5.426000000     4.598000000    -1.180000000
H    -4.602000000     4.264000000    -0.824000000
H    -5.960000000     4.789000000    -0.410000000
O    -2.827000000     1.620000000    -3.724000000
H    -2.270000000     0.936000000    -4.094000000
H    -3.030000000     1.312000000    -2.840000000
O    -2.987000000    -3.656000000     4.007000000
H    -2.998000000    -3.271000000     4.883000000
H    -3.071000000    -2.907000000     3.416000000
O    -4.999000000    -2.747000000    -0.380000000
H    -4.817000000    -1.907000000     0.042000000
H    -4.179000000    -3.234000000    -0.308000000
O     2.625000000    -4.399000000     0.020000000
H     1.681000000    -4.325000000     0.160000000
H     2.827000000    -3.713000000    -0.615000000
O    -1.765000000    -0.732000000    -4.662000000
H    -1.501000000    -0.436000000    -5.533000000
H    -1.814000000    -1.685000000    -4.738000000
O    -3.544000000     3.372000000     0.004000000
H    -2.653000000     3.662000000     0.199000000
H    -3.432000000     2.522000000    -0.422000000
O    -1.002000000    -5.293000000    -2.030000000
H    -0.113000000    -5.500000000    -1.740000000
H    -1.470000000    -6.126000000    -1.982000000
O     4.872000000     0.392000000     5.518000000
H     4.823000000    -0.108000000     6.333000000
H     4.373000000    -0.129000000     4.888000000
O    -7.536000000    -2.812000000    -1.815000000
H    -6.831000000    -2.977000000    -1.188000000
H    -7.673000000    -3.655000000    -2.248000000
O    -5.931000000     0.165000000    -2.525000000
H    -5.998000000    -0.484000000    -3.225000000
H    -5.159000000    -0.101000000    -2.025000000
O     0.351000000     1.994000000     2.594000000
H     0.240000000     1.238000000     3.171000000
H     0.415000000     1.618000000     1.716000000
O     2.731000000     3.620000000    -3.666000000
H     2.340000000     2.836000000    -4.052000000
H     2.095000000     4.314000000    -3.839000000
O     5.314000000     3.209000000     4.786000000
H     5.210000000     2.264000000     4.903000000
H     5.949000000     3.293000000     4.075000000
O     2.348000000     3.797000000     1.119000000
H     2.610000000     4.497000000     1.717000000
H     2.850000000     3.035000000     1.407000000
O     5.356000000     1.353000000    -0.685000000
H     5.386000000     1.976000000    -1.411000000
H     4.431000000     1.310000000    -0.444000000
O     0.799000000     1.968000000    -5.339000000
H     0.747000000     2.456000000    -6.160000000
H     0.362000000     2.530000000    -4.699000000
O     2.475000000    -5.982000000     2.550000000
H     2.152000000    -5.763000000     1.676000000
H     2.730000000    -6.902000000     2.488000000
O    -5.900000000    -4.828000000     0.868000000
H    -5.596000000    -4.045000000     0.409000000
H    -6.699000000    -5.082000000     0.406000000
O    -1.515000000    -5.326000000     2.651000000
H    -1.885000000    -5.316000000     1.768000000
H    -2.154000000    -4.850000000     3.183000000
O    -0.449000000    -0.314000000     3.800000000
H    -0.903000000    -0.747000000     3.078000000
H     0.165000000    -0.972000000     4.126000000
O    -7.963000000     0.112000000    -0.310000000
H    -7.725000000     0.931000000     0.125000000
H    -7.189000000    -0.120000000    -0.823000000
O     7.865000000     0.034000000    -1.260000000
H     8.164000000     0.575000000    -1.991000000
H     7.000000000     0.381000000    -1.044000000
O    -5.036000000     2.791000000    -5.246000000
H    -4.709000000     2.707000000    -6.142000000
H    -4.357000000     2.388000000    -4.705000000
O     7.289000000     3.102000000     0.401000000
H     6.503000000     2.680000000     0.054000000
H     7.872000000     3.180000000    -0.354000000
O     6.540000000     0.506000000     1.835000000
H     7.247000000     0.151000000     1.296000000
H     6.960000000     1.184000000     2.364000000
O     0.018000000    -4.479000000     0.651000000
H    -0.425000000    -4.343000000     1.488000000
H    -0.649000000    -4.281000000    -0.007000000
O     1.085000000    -2.113000000     5.204000000
H     0.891000000    -3.044000000     5.099000000
H     0.803000000    -1.908000000     6.096000000
O    -5.186000000     1.663000000     1.103000000
H    -4.552000000     2.353000000     0.907000000
H    -4.777000000     0.862000000     0.776000000
O    -6.956000000     0.124000000     3.614000000
H    -6.754000000     0.809000000     2.976000000
H    -7.397000000    -0.555000000     3.104000000
O     4.488000000    -3.632000000     2.392000000
H     3.778000000    -4.275000000     2.409000000
H     5.271000000    -4.134000000     2.619000000
O    -3.551000000    -1.063000000     2.868000000
H    -3.714000000    -0.700000000     1.998000000
H    -4.293000000    -0.765000000     3.395000000
O    -3.010000000    -4.954000000     0.153000000
H    -3.655000000    -5.660000000     0.194000000
H    -2.741000000    -4.928000000    -0.765000000
O     1.107000000    -4.713000000     4.469000000
H     1.412000000    -4.843000000     3.571000000
H     0.537000000    -5.463000000     4.639000000
