158
-3047.00051
C    -0.163000000     0.785000000    -1.213000000
H    -0.166000000     1.367000000    -2.131000000
C     1.069000000     0.203000000    -0.863000000
H     2.008000000     0.225000000    -1.411000000
C     1.081000000    -0.507000000     0.393000000
H     1.953000000    -1.173000000     0.641000000
C    -0.031000000    -0.450000000     1.255000000
H    -0.102000000    -1.097000000     2.125000000
C    -1.226000000     0.220000000     0.821000000
H    -1.967000000     0.186000000     1.615000000
C    -1.314000000     0.750000000    -0.449000000
C    -2.653000000     1.193000000    -1.039000000
O    -2.744000000     1.787000000    -2.105000000
O    -3.756000000     0.871000000    -0.540000000
O    -0.931000000    -3.721000000     3.757000000
H    -1.100000000    -2.844000000     4.101000000
H    -0.023000000    -3.903000000     4.000000000
O     2.636000000     0.477000000    -5.656000000
H     1.951000000     1.121000000    -5.838000000
H     3.454000000     0.937000000    -5.847000000
O    -2.333000000    -2.351000000    -5.764000000
H    -1.676000000    -2.804000000    -5.235000000
H    -2.440000000    -1.501000000    -5.338000000
O    -0.453000000     0.686000000    -5.216000000
H    -0.807000000     0.322000000    -4.405000000
H    -1.217000000     1.032000000    -5.678000000
O     0.002000000    -2.877000000    -3.923000000
H     0.689000000    -2.217000000    -4.014000000
H    -0.223000000    -2.861000000    -2.993000000
O     4.943000000    -0.945000000     0.202000000
H     4.418000000    -0.502000000     0.868000000
H     5.810000000    -0.544000000     0.274000000
O    -1.308000000     3.355000000    -3.527000000
H    -1.575000000     2.915000000    -4.334000000
H    -1.918000000     3.031000000    -2.864000000
O     4.588000000     3.897000000     0.073000000
H     5.417000000     4.307000000    -0.172000000
H     4.266000000     3.504000000    -0.738000000
O     4.147000000     2.542000000    -2.322000000
H     3.375000000     2.636000000    -2.880000000
H     4.371000000     1.614000000    -2.377000000
O    -3.593000000     2.918000000     2.999000000
H    -4.035000000     2.940000000     3.847000000
H    -3.333000000     3.826000000     2.840000000
O     3.632000000    -0.790000000     2.750000000
H     3.657000000    -1.679000000     2.395000000
H     3.032000000    -0.846000000     3.494000000
O    -0.917000000     5.919000000    -3.970000000
H    -1.050000000     4.982000000    -3.822000000
H    -0.671000000     5.983000000    -4.893000000
O    -4.545000000     2.872000000    -3.631000000
H    -3.978000000     2.220000000    -3.219000000
H    -3.967000000     3.352000000    -4.223000000
O    -2.562000000    -0.116000000    -3.759000000
H    -2.955000000    -0.894000000    -3.364000000
H    -2.868000000     0.609000000    -3.214000000
O    -6.768000000    -0.888000000     0.696000000
H    -6.086000000    -0.285000000     0.993000000
H    -6.591000000    -1.008000000    -0.237000000
O    -4.717000000    -1.939000000    -3.293000000
H    -4.759000000    -2.734000000    -2.762000000
H    -5.231000000    -2.145000000    -4.074000000
O     2.340000000    -3.769000000    -1.207000000
H     1.422000000    -3.497000000    -1.212000000
H     2.602000000    -3.748000000    -2.127000000
O     3.068000000    -4.018000000    -3.886000000
H     2.214000000    -3.606000000    -4.017000000
H     2.901000000    -4.954000000    -3.991000000
O     5.735000000     1.262000000     3.174000000
H     5.059000000     1.471000000     3.818000000
H     5.509000000     0.384000000     2.866000000
O    -7.169000000     0.096000000    -4.405000000
H    -6.842000000    -0.518000000    -5.063000000
H    -6.402000000     0.305000000    -3.871000000
O    -5.583000000     3.949000000    -1.474000000
H    -5.064000000     3.475000000    -0.825000000
H    -5.249000000     3.643000000    -2.317000000
O    -3.760000000    -3.793000000     2.731000000
H    -4.284000000    -3.967000000     3.512000000
H    -2.867000000    -3.691000000     3.059000000
O     0.672000000     3.096000000     1.284000000
H     0.236000000     2.735000000     0.512000000
H     1.140000000     2.352000000     1.664000000
O     1.732000000     3.142000000    -3.501000000
H     0.800000000     3.266000000    -3.324000000
H     1.796000000     3.139000000    -4.456000000
O     2.208000000     5.174000000     0.596000000
H     2.986000000     4.625000000     0.501000000
H     1.536000000     4.581000000     0.933000000
O     4.556000000    -0.097000000    -2.267000000
H     4.765000000    -0.385000000    -1.378000000
H     4.873000000    -0.804000000    -2.829000000
O     1.275000000     2.736000000    -6.433000000
H     0.833000000     3.583000000    -6.375000000
H     1.320000000     2.552000000    -7.371000000
O    -3.083000000    -3.115000000     0.075000000
H    -3.210000000    -3.031000000     1.020000000
H    -3.894000000    -2.779000000    -0.306000000
O     5.310000000    -2.376000000    -3.493000000
H     6.015000000    -2.503000000    -4.128000000
H     4.622000000    -2.979000000    -3.776000000
O    -1.401000000     1.588000000     4.167000000
H    -1.992000000     1.978000000     3.523000000
H    -1.838000000     0.780000000     4.436000000
O     5.515000000    -4.709000000     1.583000000
H     5.717000000    -5.170000000     0.769000000
H     6.089000000    -5.112000000     2.235000000
O     2.363000000    -1.408000000    -3.836000000
H     2.481000000    -0.657000000    -4.417000000
H     2.973000000    -1.252000000    -3.115000000
O    -0.970000000    -5.810000000     2.079000000
H    -1.451000000    -5.764000000     1.253000000
H    -1.222000000    -5.013000000     2.547000000
O     7.450000000    -0.016000000     0.286000000
H     7.270000000     0.836000000    -0.113000000
H     7.753000000    -0.561000000    -0.439000000
O    -0.322000000    -2.811000000    -1.109000000
H    -0.365000000    -2.108000000    -0.461000000
H    -1.060000000    -3.381000000    -0.893000000
O    -2.317000000    -1.141000000     4.984000000
H    -2.198000000    -1.715000000     5.740000000
H    -3.267000000    -1.067000000     4.886000000
O     1.932000000    -1.419000000     5.217000000
H     2.186000000    -1.579000000     6.126000000
H     1.796000000    -0.473000000     5.169000000
O    -0.329000000     4.745000000     3.269000000
H     0.536000000     4.705000000     3.676000000
H    -0.265000000     4.163000000     2.512000000
O     5.622000000    -3.189000000    -0.974000000
H     5.297000000    -2.595000000    -0.298000000
H     5.358000000    -2.781000000    -1.798000000
O    -4.719000000     0.739000000     1.890000000
H    -4.403000000     1.601000000     2.160000000
H    -4.262000000     0.562000000     1.068000000
O     0.938000000     1.250000000     5.469000000
H     0.471000000     1.186000000     6.302000000
H     0.281000000     1.565000000     4.849000000
O    -4.906000000    -0.632000000     4.318000000
H    -5.194000000    -0.383000000     3.439000000
H    -5.674000000    -1.043000000     4.714000000
O     2.849000000    -6.607000000    -0.605000000
H     2.460000000    -5.790000000    -0.917000000
H     3.733000000    -6.363000000    -0.332000000
O     3.029000000    -3.335000000     1.577000000
H     2.848000000    -3.498000000     0.652000000
H     3.933000000    -3.626000000     1.698000000
O    -5.655000000     0.044000000    -1.809000000
H    -4.922000000     0.294000000    -1.246000000
H    -5.355000000    -0.748000000    -2.255000000
O     1.895000000    -3.972000000     4.117000000
H     2.234000000    -4.048000000     3.225000000
H     1.837000000    -3.029000000     4.272000000
O    -6.530000000     4.460000000    -5.205000000
H    -5.952000000     3.832000000    -4.772000000
H    -7.241000000     3.926000000    -5.559000000
O     5.612000000    -2.381000000     4.710000000
H     5.505000000    -1.458000000     4.942000000
H     5.063000000    -2.851000000     5.338000000
