158
-3002.90856
C    -1.165000000     0.773000000     0.406000000
H    -2.074000000     1.354000000     0.545000000
C    -0.086000000     1.284000000    -0.334000000
H    -0.224000000     2.284000000    -0.736000000
C     0.933000000     0.439000000    -0.720000000
H     1.631000000     0.828000000    -1.435000000
C     0.996000000    -0.893000000    -0.219000000
H     1.867000000    -1.500000000    -0.450000000
C    -0.010000000    -1.377000000     0.576000000
H     0.139000000    -2.299000000     1.132000000
C    -1.168000000    -0.599000000     0.852000000
C    -2.296000000    -1.122000000     1.764000000
O    -3.217000000    -0.353000000     2.209000000
O    -2.178000000    -2.173000000     2.240000000
O    -1.635000000     3.645000000    -5.461000000
H    -2.262000000     4.301000000    -5.154000000
H    -1.891000000     2.840000000    -5.011000000
O     0.196000000    -6.295000000    -1.188000000
H     0.870000000    -6.213000000    -0.513000000
H    -0.557000000    -6.670000000    -0.732000000
O     4.085000000     1.485000000     2.847000000
H     4.521000000     1.788000000     2.051000000
H     3.792000000     0.598000000     2.637000000
O     2.131000000     2.787000000    -4.179000000
H     1.513000000     3.235000000    -3.602000000
H     1.661000000     2.006000000    -4.473000000
O    -5.187000000     3.774000000     2.179000000
H    -4.961000000     2.987000000     1.682000000
H    -4.946000000     3.564000000     3.081000000
O    -1.968000000    -4.206000000     0.730000000
H    -1.925000000    -3.457000000     1.325000000
H    -2.572000000    -3.930000000     0.041000000
O     3.300000000    -0.691000000    -3.784000000
H     3.568000000    -0.172000000    -3.026000000
H     2.848000000    -1.447000000    -3.409000000
O    -6.973000000     0.879000000     3.569000000
H    -6.127000000     1.168000000     3.912000000
H    -6.752000000     0.217000000     2.914000000
O     1.013000000     0.577000000    -5.114000000
H     1.191000000     0.627000000    -6.053000000
H     1.665000000    -0.038000000    -4.778000000
O    -0.800000000    -1.601000000    -2.652000000
H    -0.753000000    -0.771000000    -2.178000000
H    -1.275000000    -2.187000000    -2.062000000
O    -1.284000000     5.933000000     0.640000000
H    -0.408000000     6.247000000     0.416000000
H    -1.509000000     5.326000000    -0.065000000
O    -1.993000000     1.186000000     3.945000000
H    -1.280000000     1.706000000     3.573000000
H    -2.427000000     0.797000000     3.187000000
O    -0.669000000    -2.369000000    -5.499000000
H    -0.341000000    -1.816000000    -4.790000000
H    -1.415000000    -1.885000000    -5.855000000
O     5.435000000    -2.418000000    -0.895000000
H     4.753000000    -1.835000000    -1.227000000
H     6.204000000    -1.857000000    -0.797000000
O    -2.528000000     5.086000000    -2.303000000
H    -3.438000000     5.372000000    -2.379000000
H    -2.536000000     4.178000000    -2.604000000
O     4.673000000     0.490000000    -6.089000000
H     4.480000000     0.273000000    -5.177000000
H     4.172000000    -0.147000000    -6.599000000
O    -1.587000000     0.793000000    -4.644000000
H    -0.679000000     0.498000000    -4.578000000
H    -1.802000000     0.700000000    -5.572000000
O     0.135000000     2.566000000     2.951000000
H     0.923000000     2.270000000     3.407000000
H     0.464000000     3.102000000     2.229000000
O     1.703000000    -5.965000000     1.090000000
H     2.555000000    -6.271000000     0.780000000
H     1.861000000    -5.064000000     1.373000000
O     4.848000000     0.865000000    -1.942000000
H     5.159000000     1.661000000    -2.372000000
H     5.245000000     0.892000000    -1.072000000
O    -4.913000000    -5.030000000     0.030000000
H    -4.564000000    -5.776000000    -0.459000000
H    -5.657000000    -4.729000000    -0.491000000
O     2.913000000    -4.977000000    -1.699000000
H     2.279000000    -4.688000000    -2.356000000
H     3.719000000    -5.127000000    -2.194000000
O     6.206000000     1.330000000     1.229000000
H     6.564000000     0.468000000     1.440000000
H     6.969000000     1.853000000     0.982000000
O    -4.690000000    -3.529000000     2.545000000
H    -3.792000000    -3.246000000     2.719000000
H    -4.635000000    -4.007000000     1.718000000
O    -1.444000000    -5.746000000     4.626000000
H    -0.926000000    -5.996000000     3.860000000
H    -1.287000000    -6.446000000     5.259000000
O     4.557000000     5.685000000    -0.697000000
H     5.033000000     6.513000000    -0.761000000
H     3.981000000     5.680000000    -1.461000000
O    -2.652000000     2.465000000    -2.898000000
H    -3.295000000     1.860000000    -2.528000000
H    -2.107000000     1.918000000    -3.465000000
O     2.945000000    -0.884000000     2.271000000
H     2.125000000    -0.496000000     1.964000000
H     3.040000000    -1.683000000     1.752000000
O    -4.233000000    -5.739000000     5.072000000
H    -3.800000000    -5.210000000     5.743000000
H    -3.581000000    -5.826000000     4.377000000
O     5.909000000     2.891000000    -4.179000000
H     5.751000000     3.833000000    -4.117000000
H     5.103000000     2.537000000    -4.557000000
O     1.260000000    -3.325000000     6.031000000
H     0.456000000    -3.059000000     5.586000000
H     1.880000000    -2.619000000     5.848000000
O    -4.628000000     1.350000000     0.636000000
H    -4.778000000     0.943000000    -0.217000000
H    -4.157000000     0.685000000     1.139000000
O    -0.853000000    -0.514000000     5.844000000
H    -0.949000000    -1.379000000     5.446000000
H    -1.279000000     0.082000000     5.227000000
O     0.276000000     4.863000000    -3.428000000
H    -0.214000000     4.813000000    -4.249000000
H    -0.343000000     5.241000000    -2.803000000
O    -4.837000000     0.225000000    -1.966000000
H    -4.318000000    -0.055000000    -2.720000000
H    -5.572000000    -0.387000000    -1.941000000
O     3.086000000     5.077000000    -3.008000000
H     2.293000000     5.602000000    -3.120000000
H     2.793000000     4.173000000    -3.123000000
O     3.102000000    -3.441000000     0.749000000
H     2.910000000    -3.755000000    -0.134000000
H     3.968000000    -3.799000000     0.947000000
O    -3.689000000    -2.713000000    -0.975000000
H    -4.190000000    -3.500000000    -0.760000000
H    -4.267000000    -2.210000000    -1.548000000
O    -4.512000000     1.923000000     4.545000000
H    -3.611000000     1.632000000     4.401000000
H    -4.687000000     1.711000000     5.462000000
O    -6.464000000    -1.244000000     2.268000000
H    -6.989000000    -1.574000000     1.539000000
H    -5.782000000    -1.905000000     2.390000000
O    -3.145000000    -3.766000000     6.651000000
H    -3.022000000    -3.692000000     7.598000000
H    -2.398000000    -3.299000000     6.275000000
O    -2.398000000    -6.941000000     0.278000000
H    -2.006000000    -7.614000000     0.834000000
H    -2.203000000    -6.117000000     0.726000000
O     1.653000000    -2.589000000    -3.269000000
H     0.761000000    -2.413000000    -2.970000000
H     1.556000000    -3.290000000    -3.913000000
O     5.552000000    -2.868000000    -4.177000000
H     4.949000000    -2.229000000    -3.798000000
H     5.318000000    -2.897000000    -5.105000000
O    -0.910000000    -2.862000000     4.588000000
H    -1.225000000    -2.804000000     3.686000000
H    -0.975000000    -3.792000000     4.805000000
O    -4.556000000    -1.159000000     4.484000000
H    -4.349000000    -0.984000000     3.566000000
H    -4.501000000    -0.303000000     4.909000000
O    -5.535000000    -2.666000000     6.362000000
H    -4.921000000    -3.377000000     6.543000000
H    -5.200000000    -2.257000000     5.564000000
O    -1.274000000     3.833000000     4.944000000
H    -0.790000000     3.668000000     5.753000000
H    -0.635000000     3.679000000     4.248000000
