158
-3016.05075
C     1.333000000     0.667000000    -0.100000000
H     2.290000000     1.182000000    -0.083000000
C     0.171000000     1.257000000     0.378000000
H     0.184000000     2.276000000     0.756000000
C    -0.994000000     0.531000000     0.427000000
H    -1.830000000     0.944000000     1.011000000
C    -1.065000000    -0.793000000    -0.003000000
H    -1.991000000    -1.344000000     0.139000000
C     0.175000000    -1.426000000    -0.406000000
H     0.150000000    -2.422000000    -0.841000000
C     1.331000000    -0.662000000    -0.507000000
C     2.572000000    -1.357000000    -0.936000000
O     2.570000000    -2.535000000    -1.215000000
O     3.538000000    -0.625000000    -1.204000000
O    -2.227000000     4.016000000     0.385000000
H    -2.829000000     3.554000000    -0.199000000
H    -2.536000000     4.922000000     0.379000000
O     2.632000000    -0.125000000    -4.842000000
H     2.555000000     0.762000000    -4.490000000
H     2.953000000    -0.648000000    -4.107000000
O    -5.215000000    -2.927000000    -2.262000000
H    -5.513000000    -2.594000000    -1.416000000
H    -5.858000000    -2.597000000    -2.890000000
O    -0.326000000     5.192000000     2.088000000
H    -1.128000000     5.090000000     1.575000000
H    -0.365000000     4.487000000     2.735000000
O     6.419000000    -1.288000000     2.907000000
H     6.493000000    -1.141000000     1.964000000
H     5.477000000    -1.341000000     3.068000000
O    -1.949000000     3.011000000     3.147000000
H    -1.847000000     2.940000000     2.197000000
H    -2.761000000     2.543000000     3.336000000
O    -2.029000000    -2.204000000     2.879000000
H    -1.930000000    -3.136000000     3.072000000
H    -1.134000000    -1.890000000     2.751000000
O     4.790000000     4.869000000     0.556000000
H     4.924000000     5.474000000     1.285000000
H     5.109000000     4.027000000     0.882000000
O    -6.360000000    -3.264000000     0.522000000
H    -5.820000000    -3.959000000     0.898000000
H    -6.528000000    -2.670000000     1.253000000
O     4.718000000     1.777000000    -1.213000000
H     4.684000000     1.898000000    -0.264000000
H     4.173000000     1.007000000    -1.376000000
O     3.389000000     1.013000000     3.516000000
H     2.445000000     1.039000000     3.675000000
H     3.628000000     0.096000000     3.649000000
O     2.541000000    -3.418000000     1.410000000
H     2.610000000    -3.370000000     0.456000000
H     2.163000000    -4.281000000     1.579000000
O    -6.080000000     2.614000000     2.842000000
H    -6.668000000     2.601000000     3.598000000
H    -6.645000000     2.414000000     2.096000000
O     0.544000000    -1.878000000     3.854000000
H     0.724000000    -2.804000000     4.019000000
H     1.386000000    -1.516000000     3.580000000
O     2.951000000    -3.782000000    -6.307000000
H     3.071000000    -4.332000000    -5.533000000
H     2.014000000    -3.586000000    -6.319000000
O    -3.799000000     2.751000000    -1.706000000
H    -3.255000000     2.901000000    -2.478000000
H    -4.681000000     2.621000000    -2.055000000
O     1.873000000    -6.213000000     1.254000000
H     2.044000000    -7.148000000     1.140000000
H     1.111000000    -6.178000000     1.833000000
O     6.313000000    -0.417000000    -0.012000000
H     6.818000000     0.359000000    -0.255000000
H     5.460000000    -0.287000000    -0.427000000
O    -4.991000000    -3.249000000     3.338000000
H    -5.749000000    -3.259000000     3.921000000
H    -5.007000000    -2.379000000     2.939000000
O     4.602000000     2.226000000     1.376000000
H     4.003000000     1.784000000     1.978000000
H     5.460000000     2.149000000     1.792000000
O     5.949000000     0.548000000    -3.266000000
H     6.079000000     1.037000000    -4.079000000
H     5.678000000     1.210000000    -2.629000000
O     3.526000000    -6.365000000    -1.894000000
H     3.202000000    -5.782000000    -2.580000000
H     3.513000000    -7.235000000    -2.292000000
O     1.077000000    -4.951000000    -1.310000000
H     1.344000000    -4.039000000    -1.198000000
H     1.899000000    -5.441000000    -1.329000000
O    -6.740000000    -0.685000000     1.738000000
H    -7.298000000     0.072000000     1.560000000
H    -5.857000000    -0.322000000     1.807000000
O    -4.175000000    -0.848000000     2.114000000
H    -3.388000000    -1.311000000     2.401000000
H    -4.063000000    -0.748000000     1.169000000
O    -2.080000000     3.434000000     5.903000000
H    -1.428000000     4.055000000     6.227000000
H    -1.815000000     3.258000000     5.000000000
O    -1.708000000    -4.164000000    -4.061000000
H    -1.877000000    -5.101000000    -3.962000000
H    -1.765000000    -3.814000000    -3.172000000
O     6.777000000    -1.302000000    -5.378000000
H     6.161000000    -1.361000000    -4.647000000
H     6.223000000    -1.294000000    -6.158000000
O    -1.380000000    -5.238000000     2.617000000
H    -1.698000000    -5.220000000     1.715000000
H    -1.209000000    -6.163000000     2.793000000
O     1.191000000     2.236000000    -3.249000000
H     0.615000000     1.484000000    -3.109000000
H     0.744000000     2.963000000    -2.815000000
O     3.657000000    -1.584000000     3.369000000
H     3.672000000    -2.016000000     4.223000000
H     3.171000000    -2.186000000     2.805000000
O    -2.822000000    -3.465000000    -1.370000000
H    -3.566000000    -3.102000000    -1.850000000
H    -3.209000000    -3.860000000    -0.590000000
O     4.849000000    -6.245000000     0.836000000
H     5.198000000    -5.421000000     1.175000000
H     4.300000000    -5.987000000     0.096000000
O     5.315000000    -2.081000000    -2.727000000
H     5.783000000    -1.251000000    -2.634000000
H     4.548000000    -1.988000000    -2.162000000
O     5.336000000    -3.683000000     0.306000000
H     4.722000000    -3.259000000     0.907000000
H     5.870000000    -2.966000000    -0.035000000
O    -4.281000000    -5.139000000     1.689000000
H    -4.402000000    -4.583000000     2.459000000
H    -4.208000000    -6.026000000     2.042000000
O    -1.283000000     0.388000000    -2.675000000
H    -0.725000000     0.275000000    -1.906000000
H    -2.175000000     0.363000000    -2.329000000
O    -1.224000000    -5.159000000    -0.157000000
H    -0.342000000    -5.224000000    -0.525000000
H    -1.669000000    -4.522000000    -0.716000000
O    -4.232000000     1.540000000     4.210000000
H    -4.282000000     0.616000000     3.964000000
H    -4.898000000     1.967000000     3.670000000
O     0.107000000     4.059000000    -1.590000000
H     0.181000000     5.010000000    -1.662000000
H    -0.601000000     3.920000000    -0.961000000
O    -3.098000000    -1.849000000     5.647000000
H    -3.265000000    -2.782000000     5.778000000
H    -3.003000000    -1.753000000     4.699000000
O     3.113000000    -3.990000000    -3.519000000
H     4.035000000    -3.785000000    -3.677000000
H     2.882000000    -3.473000000    -2.748000000
O    -4.418000000     0.263000000    -0.402000000
H    -4.049000000     1.146000000    -0.371000000
H    -5.115000000     0.318000000    -1.055000000
O     8.597000000    -1.360000000    -1.438000000
H     7.900000000    -1.174000000    -0.809000000
H     9.088000000    -2.082000000    -1.045000000
O     0.865000000    -6.179000000    -3.699000000
H     0.768000000    -6.078000000    -2.752000000
H     1.232000000    -5.345000000    -3.992000000
O    -5.121000000     5.644000000    -2.556000000
H    -5.285000000     4.739000000    -2.290000000
H    -5.478000000     5.702000000    -3.442000000
O     3.246000000     4.386000000    -1.824000000
H     2.649000000     3.638000000    -1.822000000
H     3.390000000     4.581000000    -0.898000000
O     6.664000000    -4.509000000    -3.326000000
H     6.166000000    -5.007000000    -3.974000000
H     6.333000000    -3.614000000    -3.405000000
