158
-3021.33244
C    -0.765000000     1.067000000     0.654000000
H    -1.182000000     1.913000000     1.193000000
C     0.236000000     1.239000000    -0.210000000
H     0.622000000     2.245000000    -0.356000000
C     0.856000000     0.160000000    -0.859000000
H     1.647000000     0.314000000    -1.579000000
C     0.436000000    -1.169000000    -0.582000000
H     0.927000000    -1.972000000    -1.124000000
C    -0.621000000    -1.322000000     0.333000000
H    -0.863000000    -2.340000000     0.630000000
C    -1.104000000    -0.218000000     1.051000000
C    -2.162000000    -0.460000000     2.098000000
O    -2.686000000     0.592000000     2.486000000
O    -2.242000000    -1.416000000     2.788000000
O    -1.714000000     4.745000000    -2.372000000
H    -1.561000000     3.826000000    -2.592000000
H    -2.166000000     4.718000000    -1.529000000
O    -1.492000000     1.186000000     4.903000000
H    -0.653000000     0.725000000     4.903000000
H    -1.965000000     0.823000000     4.154000000
O     2.837000000    -0.844000000     3.193000000
H     1.992000000    -1.172000000     2.886000000
H     2.690000000    -0.626000000     4.113000000
O    -3.388000000    -5.064000000    -0.717000000
H    -3.951000000    -4.785000000     0.005000000
H    -3.481000000    -4.375000000    -1.374000000
O    -0.344000000     4.059000000     3.906000000
H     0.570000000     3.924000000     3.656000000
H    -0.441000000     3.574000000     4.726000000
O    -6.894000000     0.550000000     5.793000000
H    -6.232000000     0.896000000     5.194000000
H    -6.873000000     1.145000000     6.542000000
O    -0.367000000    -3.092000000    -3.329000000
H    -0.200000000    -3.793000000    -3.959000000
H    -0.317000000    -3.521000000    -2.475000000
O     1.054000000    -1.008000000    -4.548000000
H     0.777000000    -0.359000000    -5.195000000
H     0.258000000    -1.498000000    -4.344000000
O     1.604000000    -6.128000000    -4.132000000
H     2.249000000    -6.710000000    -4.533000000
H     2.050000000    -5.768000000    -3.365000000
O     4.610000000     0.256000000    -1.737000000
H     4.303000000     1.102000000    -2.064000000
H     4.199000000     0.168000000    -0.877000000
O    -6.563000000    -2.242000000     4.096000000
H    -6.771000000    -1.563000000     3.454000000
H    -5.755000000    -1.939000000     4.511000000
O    -2.769000000     2.737000000     6.570000000
H    -2.256000000     2.200000000     5.965000000
H    -3.035000000     2.132000000     7.261000000
O     5.396000000    -2.717000000     0.991000000
H     5.521000000    -2.650000000     1.938000000
H     4.613000000    -2.196000000     0.815000000
O    -0.426000000    -4.863000000    -1.338000000
H    -1.264000000    -5.110000000    -0.947000000
H     0.184000000    -4.838000000    -0.600000000
O    -1.210000000     2.279000000    -3.243000000
H    -0.298000000     2.005000000    -3.339000000
H    -1.672000000     1.485000000    -2.974000000
O    -5.651000000     1.331000000    -1.358000000
H    -4.938000000     0.912000000    -1.841000000
H    -5.377000000     1.288000000    -0.442000000
O    -0.171000000    -6.743000000     2.476000000
H    -0.094000000    -7.214000000     3.306000000
H     0.297000000    -5.922000000     2.623000000
O    -3.779000000     5.524000000     3.898000000
H    -3.389000000     5.857000000     3.089000000
H    -3.346000000     4.683000000     4.043000000
O     3.642000000     2.459000000    -2.539000000
H     2.742000000     2.618000000    -2.823000000
H     4.158000000     3.128000000    -2.989000000
O     7.103000000     1.213000000    -2.306000000
H     6.290000000     0.718000000    -2.196000000
H     7.673000000     0.629000000    -2.806000000
O     3.750000000    -0.236000000    -4.478000000
H     3.866000000     0.255000000    -3.665000000
H     2.818000000    -0.450000000    -4.498000000
O     1.198000000     4.292000000    -3.151000000
H     1.242000000     4.832000000    -3.939000000
H     0.485000000     4.672000000    -2.638000000
O    -0.610000000    -4.190000000     5.519000000
H    -0.564000000    -5.142000000     5.601000000
H    -0.795000000    -3.881000000     6.406000000
O     3.663000000    -5.668000000    -2.272000000
H     4.248000000    -6.365000000    -1.973000000
H     4.154000000    -4.861000000    -2.118000000
O     5.934000000    -0.257000000    -6.133000000
H     5.219000000    -0.096000000    -5.517000000
H     6.162000000    -1.177000000    -6.001000000
O    -5.006000000     1.236000000     1.397000000
H    -4.232000000     0.811000000     1.765000000
H    -5.123000000     2.023000000     1.930000000
O    -4.079000000    -1.365000000     5.083000000
H    -3.972000000    -0.420000000     5.194000000
H    -3.723000000    -1.546000000     4.214000000
O     1.546000000    -0.092000000     5.524000000
H     0.950000000    -0.533000000     4.918000000
H     0.998000000     0.138000000     6.274000000
O     3.414000000     5.046000000     1.450000000
H     2.951000000     5.872000000     1.592000000
H     3.075000000     4.462000000     2.129000000
O    -3.427000000     5.285000000    -0.355000000
H    -3.363000000     6.236000000    -0.271000000
H    -3.217000000     4.953000000     0.518000000
O     4.335000000    -3.023000000    -1.948000000
H     5.240000000    -2.934000000    -2.245000000
H     4.078000000    -2.137000000    -1.692000000
O    -0.035000000     6.834000000    -0.706000000
H    -0.925000000     7.122000000    -0.910000000
H    -0.074000000     5.879000000    -0.760000000
O     1.745000000    -5.346000000     0.089000000
H     1.696000000    -6.257000000     0.377000000
H     2.461000000    -5.334000000    -0.547000000
O    -4.629000000     1.815000000     4.966000000
H    -3.845000000     2.251000000     5.299000000
H    -5.019000000     2.449000000     4.364000000
O     3.321000000    -0.739000000     0.578000000
H     2.464000000    -0.484000000     0.235000000
H     3.243000000    -0.626000000     1.525000000
O    -1.725000000     5.922000000     2.076000000
H    -1.352000000     6.731000000     1.726000000
H    -1.072000000     5.609000000     2.703000000
O    -2.905000000     3.259000000     2.883000000
H    -2.906000000     2.311000000     2.747000000
H    -2.003000000     3.525000000     2.705000000
O    -5.675000000     3.280000000     2.920000000
H    -6.366000000     3.879000000     3.202000000
H    -4.863000000     3.771000000     3.052000000
O    -0.514000000     0.424000000    -6.384000000
H    -0.031000000     0.008000000    -7.098000000
H    -0.197000000     1.327000000    -6.374000000
O    -3.385000000    -6.612000000     2.819000000
H    -2.945000000    -5.839000000     3.171000000
H    -2.947000000    -6.778000000     1.984000000
O    -2.508000000    -4.118000000     3.439000000
H    -2.010000000    -4.008000000     4.249000000
H    -2.682000000    -3.224000000     3.142000000
O    -5.102000000    -3.295000000     0.933000000
H    -5.066000000    -2.364000000     1.152000000
H    -4.668000000    -3.731000000     1.666000000
O    -7.229000000    -0.445000000     2.190000000
H    -7.849000000     0.218000000     2.494000000
H    -6.548000000     0.054000000     1.740000000
O    -1.463000000    -0.514000000    -2.789000000
H    -0.894000000    -1.218000000    -3.102000000
H    -1.046000000    -0.210000000    -1.983000000
O     1.417000000    -3.508000000     2.207000000
H     1.464000000    -3.743000000     1.280000000
H     2.017000000    -4.117000000     2.639000000
O    -4.233000000    -2.970000000     7.253000000
H    -5.160000000    -2.862000000     7.465000000
H    -4.118000000    -2.493000000     6.432000000
O     0.000000000    -1.429000000     4.026000000
H     0.299000000    -2.309000000     3.798000000
H    -0.888000000    -1.378000000     3.673000000
O     5.256000000     4.431000000    -3.017000000
H     6.015000000     4.003000000    -2.620000000
H     5.628000000     5.010000000    -3.683000000
