158
-3053.66258
C    -0.841000000     1.179000000     0.332000000
H    -1.409000000     2.105000000     0.343000000
C    -0.138000000     0.960000000    -0.835000000
H    -0.320000000     1.604000000    -1.691000000
C     0.746000000    -0.124000000    -0.976000000
H     1.253000000    -0.277000000    -1.915000000
C     0.734000000    -1.099000000    -0.030000000
H     1.386000000    -1.965000000    -0.115000000
C    -0.065000000    -0.901000000     1.092000000
H    -0.145000000    -1.662000000     1.865000000
C    -0.761000000     0.267000000     1.357000000
C    -1.708000000     0.353000000     2.559000000
O    -2.173000000     1.412000000     2.976000000
O    -1.948000000    -0.592000000     3.317000000
O    -3.820000000    -0.705000000     5.422000000
H    -3.135000000    -1.034000000     4.840000000
H    -4.470000000    -0.321000000     4.834000000
O     1.728000000     1.497000000     4.383000000
H     1.492000000     1.533000000     5.310000000
H     2.673000000     1.348000000     4.382000000
O    -0.953000000    -4.249000000     0.156000000
H    -0.411000000    -4.529000000    -0.582000000
H    -0.807000000    -4.916000000     0.827000000
O     3.793000000    -5.319000000    -2.825000000
H     4.113000000    -5.688000000    -2.001000000
H     4.036000000    -4.394000000    -2.783000000
O     1.895000000     3.800000000     3.229000000
H     1.839000000     2.910000000     3.577000000
H     2.376000000     4.289000000     3.898000000
O     1.835000000     2.941000000    -4.941000000
H     1.382000000     3.454000000    -4.272000000
H     1.179000000     2.810000000    -5.626000000
O    -1.072000000    -2.275000000    -2.695000000
H    -0.745000000    -2.743000000    -1.926000000
H    -0.298000000    -1.843000000    -3.058000000
O     1.610000000    -1.138000000    -4.484000000
H     0.763000000    -0.847000000    -4.821000000
H     1.924000000    -1.767000000    -5.133000000
O     3.540000000     2.571000000     0.546000000
H     3.476000000     2.967000000     1.415000000
H     3.418000000     1.634000000     0.700000000
O     0.652000000    -4.968000000    -1.996000000
H     1.526000000    -5.340000000    -2.110000000
H     0.340000000    -4.813000000    -2.888000000
O     3.433000000     0.565000000    -3.833000000
H     2.893000000    -0.175000000    -4.110000000
H     2.928000000     1.338000000    -4.084000000
O    -6.584000000    -0.143000000     3.112000000
H    -6.274000000    -0.521000000     2.289000000
H    -5.920000000     0.506000000     3.343000000
O     0.618000000    -4.289000000    -4.575000000
H     1.478000000    -4.337000000    -4.993000000
H     0.080000000    -3.790000000    -5.190000000
O    -1.793000000     0.999000000     5.946000000
H    -1.970000000     1.091000000     5.010000000
H    -2.504000000     0.447000000     6.271000000
O     0.688000000     0.831000000     6.826000000
H     0.645000000     0.886000000     7.781000000
H    -0.188000000     1.083000000     6.532000000
O    -3.192000000    -3.024000000     0.674000000
H    -2.377000000    -3.438000000     0.390000000
H    -3.101000000    -2.941000000     1.623000000
O    -1.072000000     5.686000000     4.866000000
H    -1.978000000     5.916000000     5.072000000
H    -1.139000000     5.096000000     4.115000000
O    -0.005000000     4.008000000    -3.040000000
H    -0.932000000     4.221000000    -2.940000000
H     0.386000000     4.239000000    -2.196000000
O     4.578000000     3.758000000    -4.413000000
H     4.991000000     2.940000000    -4.690000000
H     3.640000000     3.600000000    -4.516000000
O    -3.239000000     4.161000000    -1.774000000
H    -3.143000000     4.827000000    -2.455000000
H    -3.262000000     4.657000000    -0.955000000
O     2.866000000    -0.070000000     1.827000000
H     2.720000000    -0.887000000     2.303000000
H     2.108000000     0.009000000     1.248000000
O    -4.969000000    -0.232000000    -3.161000000
H    -4.723000000    -0.940000000    -3.757000000
H    -4.330000000    -0.285000000    -2.450000000
O    -5.326000000    -4.268000000     4.390000000
H    -5.249000000    -3.985000000     5.301000000
H    -4.637000000    -3.788000000     3.931000000
O     4.813000000    -2.745000000    -3.123000000
H     5.617000000    -3.172000000    -2.827000000
H     5.055000000    -1.826000000    -3.233000000
O    -5.613000000     3.177000000     1.520000000
H    -4.976000000     2.836000000     0.892000000
H    -6.181000000     3.745000000     1.000000000
O    -4.671000000     1.778000000     3.472000000
H    -4.798000000     2.449000000     2.802000000
H    -3.786000000     1.447000000     3.315000000
O     1.582000000     5.051000000    -1.007000000
H     2.331000000     5.595000000    -0.763000000
H     1.712000000     4.234000000    -0.525000000
O     6.083000000    -3.193000000     0.764000000
H     6.631000000    -3.035000000     1.532000000
H     5.258000000    -2.748000000     0.963000000
O    -4.189000000     1.884000000    -0.364000000
H    -3.861000000     2.640000000    -0.851000000
H    -3.727000000     1.136000000    -0.743000000
O     5.112000000     1.682000000    -1.666000000
H     4.847000000     2.261000000    -0.952000000
H     4.306000000     1.519000000    -2.155000000
O     6.016000000    -0.365000000    -4.844000000
H     5.748000000    -0.453000000    -5.758000000
H     5.230000000    -0.059000000    -4.392000000
O    -5.600000000     2.911000000     6.406000000
H    -5.237000000     2.852000000     5.522000000
H    -6.489000000     2.565000000     6.323000000
O     2.849000000    -2.493000000     3.421000000
H     2.600000000    -3.382000000     3.167000000
H     3.233000000    -2.591000000     4.293000000
O    -2.166000000     5.686000000     0.704000000
H    -1.485000000     6.358000000     0.660000000
H    -1.859000000     5.078000000     1.377000000
O    -1.193000000     3.947000000     2.891000000
H    -1.506000000     3.042000000     2.882000000
H    -0.239000000     3.870000000     2.854000000
O     7.224000000    -0.532000000    -2.045000000
H     6.487000000    -0.004000000    -1.739000000
H     7.571000000    -0.048000000    -2.794000000
O    -6.071000000     4.845000000     3.642000000
H    -6.970000000     4.574000000     3.829000000
H    -5.812000000     4.313000000     2.889000000
O    -1.395000000     0.228000000    -6.248000000
H    -2.049000000    -0.167000000    -5.671000000
H    -1.893000000     0.844000000    -6.786000000
O    -0.640000000    -2.414000000    -6.542000000
H    -0.854000000    -1.483000000    -6.597000000
H    -1.465000000    -2.861000000    -6.733000000
O    -2.537000000    -3.185000000     3.475000000
H    -1.967000000    -3.663000000     4.076000000
H    -2.207000000    -2.287000000     3.494000000
O    -3.083000000    -1.657000000    -4.674000000
H    -2.852000000    -2.192000000    -5.434000000
H    -2.586000000    -2.040000000    -3.951000000
O     3.433000000    -3.051000000    -5.389000000
H     3.923000000    -3.083000000    -4.568000000
H     4.104000000    -2.955000000    -6.065000000
O    -3.176000000    -1.080000000    -1.359000000
H    -3.142000000    -1.643000000    -0.586000000
H    -2.428000000    -1.355000000    -1.888000000
O     0.208000000    -6.425000000     1.504000000
H    -0.102000000    -7.210000000     1.052000000
H     1.162000000    -6.490000000     1.469000000
O    -0.387000000    -1.949000000     7.559000000
H    -0.633000000    -2.790000000     7.174000000
H    -0.379000000    -1.340000000     6.821000000
O    -4.991000000    -3.263000000     6.722000000
H    -5.204000000    -3.182000000     7.651000000
H    -4.648000000    -2.403000000     6.479000000
O     0.017000000    -3.793000000     5.279000000
H     0.714000000    -3.966000000     5.911000000
H     0.205000000    -2.914000000     4.950000000
O    -0.083000000    -1.091000000     4.972000000
H     0.050000000    -0.152000000     5.096000000
H    -0.700000000    -1.153000000     4.243000000
