158
-3042.14095
C    -0.134000000     1.179000000     0.890000000
H     0.025000000     2.109000000     1.430000000
C     0.084000000     1.272000000    -0.461000000
H     0.131000000     2.221000000    -0.989000000
C     0.139000000     0.068000000    -1.180000000
H     0.338000000     0.188000000    -2.229000000
C     0.019000000    -1.143000000    -0.597000000
H     0.259000000    -1.997000000    -1.225000000
C    -0.207000000    -1.266000000     0.765000000
H    -0.109000000    -2.237000000     1.243000000
C    -0.250000000    -0.095000000     1.534000000
C    -0.615000000    -0.236000000     2.966000000
O    -0.454000000     0.731000000     3.783000000
O    -1.061000000    -1.263000000     3.430000000
O    -0.049000000     0.267000000     6.306000000
H    -0.475000000     1.012000000     6.729000000
H    -0.008000000     0.508000000     5.381000000
O    -1.953000000    -5.125000000     0.326000000
H    -2.451000000    -5.663000000    -0.289000000
H    -1.137000000    -5.608000000     0.459000000
O     3.524000000    -3.286000000     1.376000000
H     2.936000000    -2.557000000     1.176000000
H     3.303000000    -3.533000000     2.274000000
O     2.875000000     1.754000000     2.126000000
H     3.563000000     1.698000000     2.789000000
H     3.139000000     2.485000000     1.568000000
O     2.150000000     4.327000000    -5.852000000
H     2.616000000     4.042000000    -5.066000000
H     2.734000000     4.094000000    -6.574000000
O    -2.489000000    -3.570000000     2.573000000
H    -2.092000000    -2.701000000     2.633000000
H    -1.989000000    -4.016000000     1.889000000
O     0.404000000    -2.306000000    -4.216000000
H     0.527000000    -3.222000000    -4.463000000
H    -0.470000000    -2.085000000    -4.538000000
O     4.398000000     1.551000000    -1.360000000
H     5.098000000     1.469000000    -0.712000000
H     3.879000000     0.754000000    -1.255000000
O    -4.472000000     3.184000000     0.518000000
H    -3.721000000     3.256000000    -0.071000000
H    -4.193000000     3.630000000     1.318000000
O     5.138000000    -2.226000000    -4.322000000
H     5.512000000    -1.575000000    -4.916000000
H     4.230000000    -1.947000000    -4.202000000
O     0.230000000    -6.850000000     0.175000000
H     0.105000000    -7.746000000     0.487000000
H     0.968000000    -6.519000000     0.687000000
O     2.644000000    -0.800000000    -5.620000000
H     2.238000000    -0.133000000    -6.173000000
H     1.958000000    -1.049000000    -5.001000000
O     1.094000000    -4.659000000    -5.199000000
H     1.516000000    -4.932000000    -6.014000000
H     1.187000000    -5.413000000    -4.617000000
O    -1.097000000    -0.841000000    -6.281000000
H    -2.037000000    -1.020000000    -6.265000000
H    -0.762000000    -1.380000000    -6.997000000
O     2.006000000     5.340000000     3.098000000
H     1.186000000     4.967000000     3.422000000
H     1.764000000     6.207000000     2.774000000
O    -0.826000000     2.857000000     7.149000000
H    -0.681000000     3.059000000     8.073000000
H    -0.063000000     3.224000000     6.701000000
O     1.698000000    -4.243000000    -0.870000000
H     1.444000000    -5.088000000    -1.240000000
H     2.558000000    -4.401000000    -0.481000000
O     1.794000000     0.124000000     8.352000000
H     0.993000000    -0.089000000     7.874000000
H     2.468000000     0.183000000     7.675000000
O     3.768000000     2.705000000    -3.884000000
H     3.684000000     2.015000000    -4.541000000
H     3.548000000     2.276000000    -3.057000000
O    -3.107000000     3.069000000    -1.833000000
H    -2.360000000     3.667000000    -1.828000000
H    -2.911000000     2.447000000    -2.534000000
O     2.987000000    -0.780000000    -0.036000000
H     2.460000000    -0.504000000     0.714000000
H     2.351000000    -0.928000000    -0.735000000
O    -4.276000000    -0.453000000    -3.121000000
H    -3.625000000    -0.357000000    -3.816000000
H    -3.890000000    -0.005000000    -2.368000000
O     4.726000000    -3.460000000    -1.162000000
H     4.450000000    -2.705000000    -1.682000000
H     4.728000000    -3.141000000    -0.260000000
O     1.001000000     4.533000000    -0.705000000
H     0.353000000     4.843000000    -1.338000000
H     1.836000000     4.863000000    -1.036000000
O    -4.332000000     2.014000000     5.300000000
H    -5.210000000     1.659000000     5.439000000
H    -3.762000000     1.245000000     5.286000000
O    -2.839000000    -0.083000000     5.272000000
H    -3.466000000    -0.695000000     4.886000000
H    -2.152000000     0.003000000     4.612000000
O    -1.198000000     5.863000000    -2.010000000
H    -1.417000000     6.237000000    -1.157000000
H    -1.659000000     6.416000000    -2.640000000
O    -4.537000000    -1.594000000     3.619000000
H    -5.175000000    -2.270000000     3.845000000
H    -3.893000000    -2.045000000     3.073000000
O     2.801000000    -3.848000000     4.116000000
H     3.101000000    -4.198000000     4.955000000
H     2.695000000    -2.910000000     4.272000000
O     1.930000000    -1.323000000     4.600000000
H     2.584000000    -0.627000000     4.542000000
H     1.099000000    -0.888000000     4.409000000
O    -1.764000000     1.368000000    -3.607000000
H    -1.326000000     0.583000000    -3.937000000
H    -1.255000000     2.095000000    -3.966000000
O    -1.016000000     4.856000000     1.222000000
H    -0.442000000     4.392000000     0.611000000
H    -0.783000000     4.505000000     2.082000000
O    -0.505000000     3.374000000     3.763000000
H    -0.295000000     2.464000000     3.553000000
H    -0.163000000     3.502000000     4.647000000
O     0.960000000     1.031000000    -6.435000000
H     0.256000000     0.389000000    -6.349000000
H     0.513000000     1.878000000    -6.428000000
O    -0.450000000     3.374000000    -4.970000000
H    -0.965000000     4.150000000    -4.748000000
H     0.381000000     3.723000000    -5.292000000
O    -2.970000000     0.297000000    -0.654000000
H    -3.025000000     1.247000000    -0.552000000
H    -2.036000000     0.122000000    -0.764000000
O    -4.553000000    -4.972000000     1.133000000
H    -3.969000000    -4.451000000     1.684000000
H    -3.975000000    -5.599000000     0.698000000
O     3.627000000     4.696000000    -1.404000000
H     3.592000000     3.884000000    -1.910000000
H     3.752000000     4.409000000    -0.499000000
O    -2.348000000    -4.615000000    -4.680000000
H    -2.178000000    -4.344000000    -3.778000000
H    -2.535000000    -5.551000000    -4.618000000
O     3.936000000     4.287000000     1.305000000
H     3.204000000     4.605000000     1.833000000
H     4.715000000     4.535000000     1.802000000
O    -0.113000000    -3.484000000     4.532000000
H     0.830000000    -3.548000000     4.382000000
H    -0.346000000    -2.607000000     4.225000000
O    -2.578000000    -0.308000000     8.356000000
H    -3.095000000    -1.114000000     8.333000000
H    -2.496000000    -0.050000000     7.438000000
O    -2.034000000    -3.711000000    -2.114000000
H    -1.963000000    -2.763000000    -2.003000000
H    -1.807000000    -4.071000000    -1.257000000
O     2.764000000    -2.270000000    -2.838000000
H     2.539000000    -2.792000000    -2.067000000
H     2.028000000    -2.398000000    -3.436000000
O    -3.166000000    -4.284000000     5.453000000
H    -2.637000000    -4.276000000     4.655000000
H    -3.928000000    -4.818000000     5.230000000
O    -0.594000000    -6.213000000     3.217000000
H    -1.462000000    -6.607000000     3.303000000
H    -0.627000000    -5.437000000     3.777000000
O    -4.040000000     4.118000000     3.048000000
H    -4.506000000     3.570000000     3.680000000
H    -3.234000000     4.369000000     3.498000000
O    -0.642000000    -2.619000000     7.007000000
H    -0.635000000    -3.144000000     6.207000000
H    -0.452000000    -1.729000000     6.710000000
