158
-3011.16169
C    -0.405000000     1.346000000    -0.140000000
H    -0.598000000     2.378000000    -0.419000000
C     0.860000000     0.805000000    -0.515000000
H     1.539000000     1.427000000    -1.092000000
C     1.093000000    -0.552000000    -0.304000000
H     2.059000000    -0.879000000    -0.542000000
C     0.100000000    -1.327000000     0.298000000
H     0.427000000    -2.312000000     0.621000000
C    -1.130000000    -0.761000000     0.652000000
H    -1.809000000    -1.385000000     1.228000000
C    -1.424000000     0.574000000     0.471000000
C    -2.666000000     1.320000000     0.860000000
O    -2.772000000     2.462000000     0.488000000
O    -3.574000000     0.739000000     1.453000000
O    -1.976000000     3.533000000    -3.672000000
H    -2.735000000     3.937000000    -4.092000000
H    -1.765000000     2.784000000    -4.230000000
O    -5.672000000     2.510000000     2.591000000
H    -5.057000000     1.799000000     2.408000000
H    -5.221000000     3.300000000     2.292000000
O    -0.905000000     6.640000000     2.644000000
H    -1.517000000     6.434000000     1.937000000
H    -1.429000000     7.129000000     3.279000000
O    -0.264000000    -4.206000000     3.437000000
H    -0.921000000    -3.992000000     2.775000000
H    -0.772000000    -4.423000000     4.219000000
O     0.751000000     4.079000000    -3.256000000
H    -0.183000000     3.977000000    -3.438000000
H     1.138000000     3.242000000    -3.513000000
O    -0.118000000     3.050000000    -5.786000000
H     0.267000000     2.355000000    -5.253000000
H     0.611000000     3.644000000    -5.967000000
O    -3.227000000    -3.342000000     2.940000000
H    -3.034000000    -2.425000000     3.138000000
H    -4.183000000    -3.383000000     2.903000000
O     4.559000000    -4.237000000    -5.224000000
H     4.987000000    -3.926000000    -6.021000000
H     3.623000000    -4.162000000    -5.410000000
O    -1.910000000     0.849000000    -4.522000000
H    -1.392000000     0.214000000    -4.026000000
H    -2.542000000     1.190000000    -3.888000000
O    -2.244000000     5.390000000     0.505000000
H    -2.588000000     4.498000000     0.569000000
H    -2.497000000     5.681000000    -0.371000000
O     6.332000000     1.702000000     0.121000000
H     6.057000000     2.202000000    -0.647000000
H     6.477000000     0.815000000    -0.209000000
O    -5.102000000     3.473000000    -0.407000000
H    -4.457000000     2.807000000    -0.169000000
H    -4.598000000     4.136000000    -0.878000000
O     1.398000000     1.247000000    -4.431000000
H     0.874000000     0.589000000    -3.972000000
H     2.243000000     0.822000000    -4.574000000
O     3.970000000     0.070000000     1.508000000
H     4.090000000    -0.417000000     2.323000000
H     4.712000000    -0.190000000     0.962000000
O    -1.882000000    -4.205000000     0.634000000
H    -1.954000000    -3.605000000    -0.108000000
H    -2.502000000    -3.865000000     1.279000000
O    -1.196000000    -6.764000000    -0.077000000
H    -1.502000000    -5.979000000     0.376000000
H    -0.355000000    -6.509000000    -0.456000000
O     1.343000000    -6.628000000    -1.023000000
H     2.206000000    -6.282000000    -0.795000000
H     1.505000000    -7.194000000    -1.779000000
O     4.063000000    -5.668000000    -0.207000000
H     4.883000000    -6.090000000     0.050000000
H     4.071000000    -5.690000000    -1.164000000
O     3.345000000     4.897000000    -3.988000000
H     3.419000000     5.674000000    -4.543000000
H     2.408000000     4.815000000    -3.814000000
O    -4.335000000     1.013000000    -3.045000000
H    -3.942000000     0.141000000    -3.037000000
H    -4.949000000     1.007000000    -2.310000000
O     3.395000000    -3.621000000     1.967000000
H     3.213000000    -3.093000000     1.190000000
H     3.486000000    -4.514000000     1.634000000
O     6.254000000    -1.119000000    -0.179000000
H     6.879000000    -1.753000000     0.172000000
H     5.920000000    -1.529000000    -0.977000000
O     2.453000000    -3.123000000    -1.496000000
H     1.923000000    -3.845000000    -1.160000000
H     2.130000000    -2.982000000    -2.386000000
O     4.369000000    -1.126000000     3.805000000
H     3.950000000    -0.458000000     4.348000000
H     3.780000000    -1.879000000     3.854000000
O    -8.228000000     3.366000000     1.156000000
H    -7.341000000     3.320000000     1.514000000
H    -8.363000000     4.295000000     0.969000000
O    -6.768000000     1.108000000    -1.177000000
H    -7.475000000     1.665000000    -1.502000000
H    -6.398000000     1.596000000    -0.441000000
O     4.010000000     0.623000000    -4.760000000
H     4.640000000     0.631000000    -4.040000000
H     4.533000000     0.822000000    -5.537000000
O     5.555000000    -4.106000000     3.870000000
H     4.939000000    -4.833000000     3.952000000
H     5.162000000    -3.532000000     3.211000000
O    -4.655000000    -1.737000000     0.228000000
H    -5.525000000    -1.905000000     0.590000000
H    -4.456000000    -0.838000000     0.490000000
O     1.946000000    -2.613000000     3.855000000
H     2.282000000    -2.990000000     3.042000000
H     1.009000000    -2.808000000     3.841000000
O     5.064000000     3.834000000    -1.761000000
H     5.496000000     3.245000000    -2.379000000
H     4.396000000     4.279000000    -2.282000000
O    -5.347000000    -0.569000000     5.065000000
H    -6.106000000    -0.797000000     4.528000000
H    -5.324000000    -1.243000000     5.744000000
O    -3.223000000     4.695000000     3.558000000
H    -3.837000000     5.428000000     3.613000000
H    -3.146000000     4.518000000     2.620000000
O     1.631000000     1.113000000     2.737000000
H     2.510000000     0.767000000     2.888000000
H     1.442000000     0.899000000     1.823000000
O     5.148000000    -2.542000000    -2.164000000
H     4.340000000    -2.947000000    -1.848000000
H     5.419000000    -3.091000000    -2.900000000
O     1.742000000    -3.083000000    -4.094000000
H     1.820000000    -3.131000000    -5.047000000
H     1.393000000    -3.937000000    -3.839000000
O     3.740000000     2.913000000     1.857000000
H     2.798000000     2.836000000     2.008000000
H     3.933000000     2.241000000     1.203000000
O     5.694000000     0.615000000    -2.652000000
H     5.616000000    -0.205000000    -2.165000000
H     6.618000000     0.853000000    -2.575000000
O    -0.319000000     0.366000000     4.691000000
H     0.178000000     0.555000000     3.896000000
H    -1.159000000     0.033000000     4.376000000
O     3.870000000    -1.876000000    -6.701000000
H     3.860000000    -1.219000000    -6.005000000
H     2.950000000    -2.111000000    -6.821000000
O     0.677000000    -0.820000000    -6.679000000
H     0.446000000    -0.382000000    -5.859000000
H    -0.027000000    -1.453000000    -6.819000000
O    -1.637000000    -3.589000000    -2.780000000
H    -0.790000000    -4.012000000    -2.639000000
H    -2.178000000    -4.266000000    -3.187000000
O    -3.187000000     5.472000000    -1.902000000
H    -3.861000000     5.417000000    -2.579000000
H    -2.590000000     4.750000000    -2.099000000
O    -3.716000000    -1.666000000    -2.558000000
H    -2.937000000    -2.204000000    -2.700000000
H    -3.950000000    -1.819000000    -1.643000000
O    -0.075000000    -0.567000000    -3.146000000
H     0.073000000    -0.469000000    -2.205000000
H     0.095000000    -1.493000000    -3.320000000
O     0.642000000     4.268000000     2.145000000
H     0.032000000     4.989000000     2.305000000
H     0.121000000     3.478000000     2.283000000
O    -6.536000000     2.672000000     5.163000000
H    -6.338000000     2.631000000     4.227000000
H    -6.199000000     1.849000000     5.516000000
O    -2.573000000    -0.700000000     3.685000000
H    -3.294000000    -0.676000000     4.313000000
H    -2.912000000    -0.247000000     2.913000000
