158
-3009.89578
C    -0.769000000     1.171000000     0.256000000
H    -1.239000000     2.109000000     0.541000000
C     0.587000000     1.080000000     0.526000000
H     1.090000000     1.905000000     1.024000000
C     1.239000000    -0.123000000     0.276000000
H     2.287000000    -0.309000000     0.490000000
C     0.509000000    -1.103000000    -0.417000000
H     0.923000000    -2.074000000    -0.676000000
C    -0.770000000    -0.926000000    -0.781000000
H    -1.288000000    -1.682000000    -1.365000000
C    -1.487000000     0.197000000    -0.403000000
C    -2.973000000     0.468000000    -0.795000000
O    -3.500000000     1.495000000    -0.388000000
O    -3.735000000    -0.431000000    -1.203000000
O     2.721000000     2.830000000    -4.073000000
H     2.336000000     3.120000000    -4.900000000
H     2.026000000     2.327000000    -3.648000000
O    -5.862000000     1.161000000     0.981000000
H    -5.096000000     1.226000000     0.410000000
H    -6.355000000     1.964000000     0.812000000
O     3.770000000    -0.899000000     3.858000000
H     2.875000000    -0.589000000     3.716000000
H     3.830000000    -1.702000000     3.342000000
O    -1.964000000    -0.814000000     3.281000000
H    -2.711000000    -1.000000000     2.712000000
H    -1.484000000    -1.641000000     3.325000000
O    -3.928000000    -1.450000000     1.540000000
H    -3.765000000    -1.305000000     0.609000000
H    -4.473000000    -2.237000000     1.568000000
O     1.742000000    -4.153000000     1.203000000
H     1.983000000    -3.963000000     0.296000000
H     0.958000000    -4.697000000     1.133000000
O     0.759000000     1.430000000    -3.046000000
H     0.858000000     0.867000000    -2.278000000
H     0.651000000     0.821000000    -3.776000000
O    -3.376000000     2.707000000     2.032000000
H    -3.110000000     2.315000000     1.201000000
H    -4.130000000     3.253000000     1.809000000
O    -2.801000000     3.897000000    -1.637000000
H    -3.043000000     3.030000000    -1.311000000
H    -3.617000000     4.258000000    -1.985000000
O    -7.475000000    -1.050000000     0.355000000
H    -7.648000000    -0.986000000    -0.584000000
H    -6.823000000    -0.371000000     0.526000000
O     2.319000000     2.630000000     3.733000000
H     1.982000000     1.770000000     3.984000000
H     2.995000000     2.442000000     3.083000000
O     0.276000000     4.620000000     3.926000000
H     0.961000000     3.951000000     3.923000000
H    -0.014000000     4.664000000     4.837000000
O     5.579000000    -1.190000000    -1.564000000
H     4.810000000    -1.693000000    -1.830000000
H     6.323000000    -1.721000000    -1.849000000
O    -3.203000000    -4.554000000    -0.002000000
H    -3.361000000    -3.812000000    -0.586000000
H    -3.963000000    -4.567000000     0.580000000
O    -0.695000000    -5.340000000     0.442000000
H    -1.633000000    -5.150000000     0.464000000
H    -0.346000000    -4.748000000    -0.225000000
O     5.134000000    -5.188000000     0.741000000
H     5.940000000    -5.683000000     0.886000000
H     4.436000000    -5.837000000     0.826000000
O    -5.464000000     0.485000000    -2.796000000
H    -4.828000000     0.181000000    -2.149000000
H    -5.123000000     0.173000000    -3.634000000
O     2.392000000    -4.246000000    -1.629000000
H     2.113000000    -3.643000000    -2.317000000
H     3.340000000    -4.318000000    -1.744000000
O    -3.948000000    -5.618000000    -2.925000000
H    -3.020000000    -5.825000000    -3.040000000
H    -3.958000000    -4.913000000    -2.278000000
O     1.740000000    -2.578000000    -3.943000000
H     2.616000000    -2.195000000    -3.895000000
H     1.856000000    -3.374000000    -4.463000000
O     6.003000000    -0.799000000     2.098000000
H     5.425000000    -0.782000000     2.862000000
H     5.798000000     0.007000000     1.625000000
O    -6.734000000    -3.353000000    -3.269000000
H    -7.198000000    -3.557000000    -4.081000000
H    -6.882000000    -4.116000000    -2.710000000
O     4.259000000     1.870000000     1.972000000
H     4.491000000     1.662000000     1.067000000
H     4.691000000     2.707000000     2.144000000
O    -7.924000000    -0.811000000    -2.460000000
H    -7.749000000    -1.695000000    -2.782000000
H    -7.131000000    -0.318000000    -2.669000000
O    -4.567000000    -0.634000000    -5.472000000
H    -4.406000000    -1.512000000    -5.126000000
H    -4.460000000    -0.727000000    -6.419000000
O    -4.297000000    -2.990000000    -1.770000000
H    -5.249000000    -2.932000000    -1.858000000
H    -4.015000000    -2.087000000    -1.622000000
O     0.659000000     6.786000000    -0.082000000
H     0.365000000     6.138000000    -0.722000000
H     1.507000000     6.459000000     0.218000000
O     3.831000000    -3.287000000     2.695000000
H     4.432000000    -3.579000000     2.009000000
H     2.961000000    -3.499000000     2.357000000
O     4.662000000     2.638000000    -1.768000000
H     5.177000000     3.423000000    -1.956000000
H     4.106000000     2.526000000    -2.539000000
O     1.079000000    -0.109000000     3.133000000
H     0.322000000    -0.417000000     3.631000000
H     0.759000000    -0.027000000     2.235000000
O     5.632000000     0.146000000     5.880000000
H     4.992000000    -0.373000000     5.392000000
H     5.276000000     1.034000000     5.873000000
O    -3.020000000     3.718000000    -4.583000000
H    -2.530000000     3.524000000    -3.784000000
H    -2.360000000     3.710000000    -5.276000000
O     6.471000000    -3.158000000     3.405000000
H     6.558000000    -2.388000000     2.844000000
H     5.527000000    -3.262000000     3.525000000
O    -0.506000000    -5.184000000    -3.780000000
H     0.375000000    -5.178000000    -3.406000000
H    -0.525000000    -5.963000000    -4.337000000
O     5.682000000     0.988000000     0.023000000
H     5.223000000     1.570000000    -0.582000000
H     5.927000000     0.232000000    -0.512000000
O     2.672000000     5.098000000     1.083000000
H     3.489000000     5.004000000     1.571000000
H     2.397000000     4.199000000     0.900000000
O    -3.678000000     6.238000000     0.885000000
H    -3.622000000     7.184000000     0.745000000
H    -3.771000000     5.871000000     0.006000000
O    -5.330000000     5.297000000    -2.192000000
H    -5.521000000     4.559000000    -1.613000000
H    -5.884000000     6.007000000    -1.866000000
O    -3.153000000     1.215000000     4.581000000
H    -3.276000000     1.822000000     3.851000000
H    -2.501000000     0.589000000     4.265000000
O     2.384000000    -4.469000000     5.091000000
H     2.665000000    -3.824000000     4.441000000
H     2.109000000    -5.226000000     4.574000000
O    -6.455000000     2.852000000    -1.555000000
H    -7.248000000     2.743000000    -2.080000000
H    -5.884000000     2.137000000    -1.832000000
O     7.809000000     2.726000000     1.546000000
H     8.629000000     2.573000000     1.075000000
H     7.129000000     2.405000000     0.953000000
O    -0.198000000     4.542000000    -1.732000000
H    -1.023000000     4.160000000    -1.435000000
H     0.412000000     3.805000000    -1.760000000
O    -1.496000000    -3.128000000    -5.184000000
H    -1.060000000    -3.842000000    -4.718000000
H    -2.419000000    -3.218000000    -4.950000000
O    -0.025000000    -0.732000000    -4.749000000
H     0.610000000    -1.281000000    -4.288000000
H    -0.838000000    -1.238000000    -4.729000000
O    -2.547000000     5.753000000     3.046000000
H    -2.863000000     5.754000000     2.142000000
H    -1.733000000     5.250000000     3.015000000
O    -5.820000000     4.193000000     0.895000000
H    -6.201000000     5.042000000     1.119000000
H    -6.430000000     3.816000000     0.260000000
O    -6.432000000    -0.247000000     3.244000000
H    -6.641000000    -1.181000000     3.205000000
H    -5.781000000    -0.119000000     2.554000000
