158
-3038.11252
C    -0.378000000     1.310000000    -0.641000000
H    -0.805000000     2.129000000    -1.213000000
C     0.256000000     0.250000000    -1.252000000
H     0.423000000     0.237000000    -2.326000000
C     0.595000000    -0.923000000    -0.599000000
H     0.964000000    -1.752000000    -1.113000000
C     0.298000000    -1.041000000     0.771000000
H     0.675000000    -1.935000000     1.261000000
C    -0.338000000     0.033000000     1.408000000
H    -0.593000000    -0.046000000     2.462000000
C    -0.745000000     1.210000000     0.693000000
C    -1.423000000     2.305000000     1.433000000
O    -2.060000000     3.097000000     0.845000000
O    -1.663000000     2.091000000     2.638000000
O    -3.539000000     0.735000000    -2.766000000
H    -3.957000000     1.047000000    -3.569000000
H    -3.322000000     1.533000000    -2.283000000
O    -4.012000000     3.802000000     2.613000000
H    -4.112000000     4.068000000     3.527000000
H    -3.163000000     3.360000000     2.584000000
O    -1.205000000     0.057000000     6.881000000
H    -2.097000000     0.333000000     6.669000000
H    -0.697000000     0.261000000     6.096000000
O    -1.732000000     6.438000000     3.838000000
H    -1.744000000     5.825000000     3.103000000
H    -2.654000000     6.566000000     4.059000000
O     1.124000000    -7.318000000     1.815000000
H     1.405000000    -8.231000000     1.883000000
H     1.938000000    -6.824000000     1.712000000
O    -0.082000000     1.719000000    -4.648000000
H     0.377000000     2.127000000    -3.914000000
H    -0.930000000     2.161000000    -4.677000000
O     4.611000000     2.758000000     2.152000000
H     3.840000000     2.317000000     1.795000000
H     4.429000000     3.691000000     2.035000000
O    -0.546000000     3.201000000     4.774000000
H    -0.640000000     4.119000000     4.520000000
H    -0.899000000     2.709000000     4.032000000
O    -1.994000000    -4.072000000    -3.216000000
H    -2.316000000    -4.647000000    -2.522000000
H    -1.894000000    -3.219000000    -2.793000000
O     2.637000000    -3.803000000    -2.326000000
H     3.037000000    -3.186000000    -2.939000000
H     2.240000000    -4.471000000    -2.884000000
O     0.003000000    -1.319000000    -5.814000000
H    -0.298000000    -0.491000000    -5.442000000
H     0.353000000    -1.083000000    -6.673000000
O    -1.005000000     5.648000000     1.228000000
H    -1.614000000     6.187000000     0.723000000
H    -1.355000000     4.760000000     1.155000000
O     4.155000000    -0.712000000     1.892000000
H     3.483000000    -0.126000000     1.543000000
H     4.261000000    -0.437000000     2.803000000
O     2.500000000     1.225000000    -5.830000000
H     2.527000000     0.304000000    -5.571000000
H     1.640000000     1.530000000    -5.543000000
O    -2.342000000     3.464000000    -5.332000000
H    -3.037000000     2.811000000    -5.419000000
H    -2.721000000     4.145000000    -4.777000000
O     7.081000000    -3.621000000    -1.159000000
H     6.354000000    -2.999000000    -1.135000000
H     7.086000000    -3.949000000    -2.058000000
O     4.128000000     0.203000000     4.616000000
H     3.173000000     0.180000000     4.672000000
H     4.425000000    -0.272000000     5.392000000
O     1.826000000    -5.390000000    -4.405000000
H     1.156000000    -5.148000000    -5.044000000
H     1.526000000    -6.225000000    -4.047000000
O     4.859000000    -2.066000000    -0.506000000
H     4.118000000    -2.640000000    -0.314000000
H     5.048000000    -1.633000000     0.327000000
O    -0.045000000    -5.800000000     3.723000000
H     0.325000000    -6.361000000     3.041000000
H     0.173000000    -6.244000000     4.543000000
O     1.663000000     2.757000000    -2.819000000
H     1.524000000     2.794000000    -1.872000000
H     2.109000000     3.578000000    -3.028000000
O     2.861000000    -1.825000000    -5.629000000
H     3.276000000    -1.918000000    -4.771000000
H     1.922000000    -1.840000000    -5.444000000
O     4.476000000    -1.867000000    -3.176000000
H     4.551000000    -0.919000000    -3.286000000
H     4.666000000    -2.017000000    -2.250000000
O    -2.137000000     5.438000000    -2.557000000
H    -1.580000000     5.837000000    -3.225000000
H    -2.804000000     6.100000000    -2.374000000
O    -2.322000000    -4.161000000     3.379000000
H    -1.532000000    -4.694000000     3.469000000
H    -2.431000000    -4.053000000     2.434000000
O     1.383000000     0.918000000     5.115000000
H     0.744000000     1.604000000     4.922000000
H     1.726000000     1.146000000     5.980000000
O    -6.695000000     4.006000000     2.270000000
H    -7.156000000     3.731000000     3.062000000
H    -5.777000000     3.797000000     2.444000000
O    -2.627000000     7.365000000    -0.067000000
H    -2.415000000     8.061000000    -0.689000000
H    -3.218000000     7.778000000     0.562000000
O     3.485000000    -6.174000000     1.040000000
H     4.406000000    -5.971000000     0.875000000
H     3.005000000    -5.443000000     0.653000000
O     2.241000000    -3.770000000     0.409000000
H     1.305000000    -3.584000000     0.476000000
H     2.414000000    -3.793000000    -0.532000000
O     3.641000000    -4.038000000     3.620000000
H     3.163000000    -3.738000000     4.394000000
H     3.535000000    -3.331000000     2.984000000
O    -2.044000000    -5.762000000    -0.939000000
H    -2.997000000    -5.843000000    -0.896000000
H    -1.841000000    -5.024000000    -0.363000000
O    -4.198000000    -2.680000000    -4.594000000
H    -4.515000000    -3.361000000    -5.188000000
H    -3.416000000    -3.058000000    -4.192000000
O     1.568000000     6.189000000     1.196000000
H     1.705000000     6.624000000     0.354000000
H     0.690000000     5.812000000     1.130000000
O    -3.030000000     3.116000000    -1.471000000
H    -2.828000000     3.986000000    -1.815000000
H    -2.643000000     3.109000000    -0.596000000
O     4.139000000     0.987000000    -3.515000000
H     3.681000000     1.373000000    -4.262000000
H     3.911000000     1.552000000    -2.777000000
O     1.183000000     4.711000000    -5.420000000
H     2.019000000     4.399000000    -5.766000000
H     0.743000000     3.921000000    -5.106000000
O    -4.495000000     5.509000000     0.418000000
H    -3.669000000     5.898000000     0.132000000
H    -4.237000000     4.823000000     1.034000000
O     2.738000000     1.219000000     0.882000000
H     2.862000000     1.618000000     0.020000000
H     1.863000000     0.832000000     0.844000000
O    -0.709000000    -3.971000000    -5.820000000
H    -0.568000000    -3.029000000    -5.726000000
H    -1.148000000    -4.230000000    -5.010000000
O    -2.079000000    -1.583000000    -1.898000000
H    -2.653000000    -0.889000000    -2.221000000
H    -1.278000000    -1.129000000    -1.636000000
O    -1.878000000    -3.558000000     0.414000000
H    -1.500000000    -3.019000000    -0.280000000
H    -2.800000000    -3.301000000     0.443000000
O    -3.573000000     3.749000000     5.306000000
H    -3.878000000     4.295000000     6.031000000
H    -2.891000000     3.199000000     5.691000000
O    -3.300000000     0.706000000     4.594000000
H    -4.064000000     1.244000000     4.387000000
H    -2.637000000     0.977000000     3.959000000
O    -3.558000000    -1.905000000     4.869000000
H    -2.916000000    -2.389000000     4.349000000
H    -3.558000000    -1.025000000     4.492000000
O    -6.174000000     5.019000000    -1.842000000
H    -5.618000000     5.407000000    -1.166000000
H    -6.108000000     4.075000000    -1.694000000
O    -6.158000000     2.524000000    -0.188000000
H    -6.224000000     3.080000000     0.588000000
H    -5.251000000     2.216000000    -0.185000000
O     4.501000000     2.613000000    -0.972000000
H     5.140000000     2.462000000    -0.276000000
H     4.908000000     3.274000000    -1.532000000
