158
-3007.48952
C    -0.825000000     0.884000000    -0.846000000
H    -1.416000000     1.634000000    -1.364000000
C     0.421000000     1.228000000    -0.292000000
H     0.784000000     2.233000000    -0.490000000
C     1.110000000     0.330000000     0.491000000
H     2.048000000     0.513000000     0.986000000
C     0.553000000    -0.984000000     0.621000000
H     0.965000000    -1.702000000     1.325000000
C    -0.580000000    -1.373000000    -0.057000000
H    -0.877000000    -2.409000000     0.089000000
C    -1.343000000    -0.433000000    -0.732000000
C    -2.760000000    -0.753000000    -1.270000000
O    -3.439000000     0.079000000    -1.803000000
O    -3.316000000    -1.872000000    -1.145000000
O    -5.838000000     0.409000000    -0.434000000
H    -5.156000000     0.274000000    -1.091000000
H    -5.390000000     0.295000000     0.404000000
O     0.428000000     3.005000000    -3.095000000
H     0.815000000     3.766000000    -3.529000000
H    -0.423000000     3.314000000    -2.784000000
O    -2.492000000     2.459000000     1.073000000
H    -2.919000000     2.492000000     0.217000000
H    -1.951000000     1.670000000     1.041000000
O     5.067000000     4.892000000     3.490000000
H     5.595000000     5.617000000     3.826000000
H     4.167000000     5.216000000     3.523000000
O     2.393000000     5.280000000     3.098000000
H     2.330000000     6.164000000     2.734000000
H     1.942000000     4.726000000     2.461000000
O    -4.072000000     3.186000000    -1.025000000
H    -4.459000000     3.296000000    -1.894000000
H    -4.268000000     4.005000000    -0.570000000
O     6.390000000    -2.272000000    -1.000000000
H     6.889000000    -2.701000000    -1.695000000
H     5.949000000    -2.989000000    -0.544000000
O    -0.213000000    -1.405000000     4.420000000
H     0.014000000    -2.333000000     4.482000000
H     0.616000000    -0.968000000     4.229000000
O     1.848000000     5.214000000    -0.325000000
H     2.585000000     5.824000000    -0.287000000
H     2.154000000     4.504000000    -0.889000000
O    -1.125000000    -7.247000000    -0.382000000
H    -1.536000000    -6.389000000    -0.275000000
H    -1.741000000    -7.860000000     0.020000000
O    -1.247000000    -0.289000000    -5.416000000
H    -1.605000000    -0.903000000    -4.775000000
H    -0.333000000    -0.175000000    -5.154000000
O    -6.841000000    -1.398000000     2.789000000
H    -5.930000000    -1.152000000     2.629000000
H    -7.093000000    -1.901000000     2.015000000
O    -1.321000000    -4.618000000    -1.867000000
H    -0.496000000    -4.465000000    -1.405000000
H    -1.127000000    -5.335000000    -2.471000000
O    -6.338000000     4.008000000    -3.408000000
H    -7.232000000     4.289000000    -3.598000000
H    -6.416000000     3.072000000    -3.220000000
O    -5.226000000    -1.471000000    -3.106000000
H    -4.557000000    -1.121000000    -2.519000000
H    -5.614000000    -2.200000000    -2.621000000
O     4.296000000    -0.694000000    -1.078000000
H     4.462000000    -0.135000000    -0.320000000
H     5.085000000    -1.230000000    -1.158000000
O    -3.531000000     1.909000000    -3.732000000
H    -4.110000000     1.327000000    -4.225000000
H    -3.444000000     1.490000000    -2.875000000
O    -2.577000000    -2.393000000    -3.948000000
H    -3.334000000    -2.045000000    -3.475000000
H    -2.271000000    -3.121000000    -3.408000000
O     2.668000000    -5.419000000    -2.383000000
H     2.538000000    -4.506000000    -2.129000000
H     3.562000000    -5.447000000    -2.726000000
O     4.312000000     1.836000000     5.964000000
H     3.746000000     1.903000000     5.195000000
H     4.123000000     0.971000000     6.326000000
O    -3.648000000    -4.679000000    -0.480000000
H    -3.321000000    -4.541000000     0.409000000
H    -2.969000000    -4.311000000    -1.045000000
O    -6.513000000     1.351000000    -3.371000000
H    -6.294000000     0.594000000    -2.827000000
H    -6.219000000     1.108000000    -4.249000000
O     2.028000000     0.073000000     4.544000000
H     2.795000000    -0.327000000     4.133000000
H     2.112000000     1.006000000     4.351000000
O    -4.473000000    -1.718000000     1.170000000
H    -4.129000000    -1.917000000     0.299000000
H    -3.912000000    -2.213000000     1.768000000
O     7.546000000    -1.787000000     3.905000000
H     8.218000000    -1.234000000     4.303000000
H     7.198000000    -1.261000000     3.185000000
O     0.969000000     0.412000000    -3.274000000
H     1.003000000     1.330000000    -3.542000000
H     0.799000000     0.443000000    -2.333000000
O     3.570000000    -5.253000000     2.164000000
H     2.800000000    -5.576000000     2.632000000
H     4.311000000    -5.533000000     2.702000000
O    -7.283000000     2.997000000    -0.062000000
H    -6.922000000     2.140000000    -0.289000000
H    -6.516000000     3.544000000     0.103000000
O    -2.311000000     2.206000000     3.664000000
H    -2.640000000     2.427000000     2.793000000
H    -1.489000000     2.690000000     3.740000000
O     2.344000000    -1.869000000    -3.727000000
H     2.419000000    -2.482000000    -2.996000000
H     1.553000000    -1.365000000    -3.536000000
O     4.742000000    -1.737000000     1.634000000
H     5.070000000    -2.635000000     1.581000000
H     4.222000000    -1.720000000     2.438000000
O     2.869000000    -2.953000000    -1.304000000
H     3.069000000    -3.551000000    -0.584000000
H     3.219000000    -2.109000000    -1.019000000
O     2.253000000     2.709000000     4.374000000
H     1.733000000     2.820000000     5.171000000
H     2.312000000     3.589000000     4.002000000
O     6.243000000     0.351000000     1.256000000
H     6.929000000     0.196000000     0.606000000
H     5.939000000    -0.525000000     1.496000000
O     3.292000000     3.564000000    -2.048000000
H     2.995000000     4.079000000    -2.798000000
H     3.349000000     2.668000000    -2.379000000
O    -1.292000000     5.108000000    -0.546000000
H    -1.541000000     5.860000000    -0.009000000
H    -0.339000000     5.063000000    -0.468000000
O     0.801000000    -3.843000000     4.943000000
H     1.469000000    -4.022000000     5.604000000
H     1.120000000    -4.282000000     4.154000000
O     1.339000000    -1.207000000     7.183000000
H     2.254000000    -0.928000000     7.147000000
H     0.997000000    -1.017000000     6.309000000
O    -4.949000000    -0.133000000    -5.369000000
H    -4.868000000    -0.684000000    -4.591000000
H    -5.342000000    -0.705000000    -6.028000000
O    -3.329000000     5.013000000     2.236000000
H    -2.688000000     4.588000000     1.666000000
H    -4.143000000     5.001000000     1.732000000
O     6.574000000     2.932000000     1.647000000
H     6.136000000     2.083000000     1.602000000
H     5.980000000     3.482000000     2.157000000
O    -6.052000000    -3.726000000    -1.845000000
H    -5.278000000    -4.132000000    -1.455000000
H    -6.560000000    -3.412000000    -1.096000000
O    -2.453000000    -4.556000000     1.881000000
H    -2.039000000    -5.165000000     2.492000000
H    -2.502000000    -3.730000000     2.361000000
O     3.871000000     1.089000000    -3.184000000
H     4.164000000     0.625000000    -2.400000000
H     3.090000000     0.613000000    -3.466000000
O    -3.050000000     6.105000000    -2.844000000
H    -2.447000000     6.156000000    -3.586000000
H    -2.636000000     5.487000000    -2.242000000
O    -2.818000000    -2.210000000     3.201000000
H    -3.203000000    -2.266000000     4.076000000
H    -2.118000000    -1.564000000     3.289000000
O    -1.184000000     2.429000000    -5.491000000
H    -1.875000000     2.707000000    -4.890000000
H    -1.336000000     1.493000000    -5.615000000
O     3.915000000    -2.397000000     4.371000000
H     4.746000000    -2.424000000     4.845000000
H     3.282000000    -2.785000000     4.975000000
