158
-3026.71883
C    -1.435000000     0.305000000     0.398000000
H    -2.440000000     0.543000000     0.737000000
C    -0.329000000     0.248000000     1.265000000
H    -0.558000000     0.511000000     2.294000000
C     0.968000000     0.045000000     0.770000000
H     1.733000000     0.031000000     1.505000000
C     1.128000000    -0.259000000    -0.547000000
H     2.108000000    -0.519000000    -0.937000000
C     0.049000000    -0.255000000    -1.411000000
H     0.296000000    -0.477000000    -2.446000000
C    -1.260000000     0.076000000    -0.989000000
C    -2.468000000    -0.035000000    -1.912000000
O    -3.563000000    -0.346000000    -1.570000000
O    -2.233000000     0.133000000    -3.105000000
O    -5.268000000     0.656000000     0.233000000
H    -4.479000000     0.325000000    -0.197000000
H    -5.987000000     0.363000000    -0.328000000
O    -0.456000000     1.794000000    -4.255000000
H    -0.973000000     1.111000000    -3.828000000
H    -0.867000000     2.614000000    -3.981000000
O    -6.239000000    -0.839000000     2.921000000
H    -5.505000000    -0.798000000     2.307000000
H    -6.504000000    -1.759000000     2.917000000
O     1.868000000     4.833000000     3.997000000
H     1.590000000     5.742000000     3.892000000
H     1.631000000     4.412000000     3.170000000
O    -0.031000000     3.521000000     5.229000000
H     0.800000000     3.862000000     4.898000000
H    -0.575000000     3.418000000     4.449000000
O     4.097000000    -4.721000000     2.556000000
H     3.329000000    -5.123000000     2.962000000
H     3.736000000    -4.118000000     1.906000000
O    -3.536000000     1.506000000     4.239000000
H    -2.966000000     2.227000000     3.970000000
H    -3.301000000     0.785000000     3.655000000
O    -2.533000000    -0.860000000     3.262000000
H    -1.697000000    -0.755000000     3.717000000
H    -2.630000000    -1.806000000     3.155000000
O    -4.722000000     2.456000000    -2.580000000
H    -4.525000000     1.577000000    -2.256000000
H    -5.666000000     2.447000000    -2.736000000
O     0.122000000    -0.482000000     4.391000000
H     0.606000000    -1.044000000     3.786000000
H     0.793000000    -0.123000000     4.972000000
O     1.263000000     5.241000000     1.338000000
H     0.749000000     6.044000000     1.420000000
H     0.692000000     4.638000000     0.862000000
O    -3.915000000    -4.071000000     1.244000000
H    -3.298000000    -3.493000000     1.692000000
H    -3.722000000    -4.943000000     1.588000000
O    -0.115000000     0.298000000    -6.556000000
H    -0.110000000     0.929000000    -5.837000000
H    -0.433000000    -0.514000000    -6.160000000
O    -3.297000000    -3.931000000    -2.998000000
H    -3.345000000    -4.600000000    -2.315000000
H    -2.773000000    -3.230000000    -2.610000000
O    -1.498000000     3.349000000     2.642000000
H    -1.403000000     3.020000000     1.748000000
H    -2.267000000     3.918000000     2.607000000
O    -5.483000000    -0.441000000    -3.134000000
H    -4.905000000    -0.565000000    -2.381000000
H    -4.909000000    -0.105000000    -3.823000000
O     4.745000000    -2.838000000    -1.843000000
H     5.265000000    -2.059000000    -2.037000000
H     4.872000000    -2.984000000    -0.906000000
O    -3.038000000     4.606000000    -3.788000000
H    -3.612000000     4.396000000    -4.525000000
H    -3.268000000     3.964000000    -3.115000000
O     5.939000000    -0.225000000    -1.991000000
H     6.261000000     0.126000000    -1.160000000
H     6.619000000     0.001000000    -2.626000000
O    -1.307000000    -1.530000000    -5.142000000
H    -1.761000000    -0.920000000    -4.560000000
H    -1.868000000    -2.306000000    -5.159000000
O     0.157000000    -4.688000000    -4.095000000
H     0.642000000    -4.506000000    -3.291000000
H    -0.473000000    -5.365000000    -3.847000000
O     3.450000000     2.835000000    -4.723000000
H     3.589000000     2.168000000    -4.050000000
H     2.894000000     2.406000000    -5.374000000
O     1.939000000     3.940000000    -1.851000000
H     1.815000000     4.631000000    -2.501000000
H     2.781000000     3.546000000    -2.078000000
O     5.509000000     2.460000000     5.417000000
H     5.254000000     2.084000000     4.574000000
H     5.885000000     1.725000000     5.902000000
O    -5.792000000    -2.991000000    -2.999000000
H    -5.787000000    -2.048000000    -3.164000000
H    -4.869000000    -3.244000000    -3.031000000
O     2.362000000     1.387000000     5.381000000
H     2.915000000     1.128000000     4.644000000
H     2.207000000     2.322000000     5.247000000
O     6.380000000    -2.779000000     2.717000000
H     6.860000000    -3.444000000     3.211000000
H     5.889000000    -3.276000000     2.062000000
O     1.923000000    -1.959000000    -4.095000000
H     2.576000000    -2.392000000    -4.645000000
H     1.082000000    -2.234000000    -4.460000000
O     0.136000000     3.215000000     0.050000000
H     0.658000000     3.430000000    -0.722000000
H     0.042000000     2.263000000     0.019000000
O     1.785000000    -4.107000000     0.900000000
H     1.468000000    -3.792000000     0.054000000
H     1.922000000    -5.046000000     0.771000000
O    -7.674000000     1.567000000    -2.070000000
H    -8.193000000     1.518000000    -1.267000000
H    -7.450000000     0.657000000    -2.266000000
O     4.235000000    -2.079000000     4.564000000
H     4.912000000    -2.745000000     4.445000000
H     4.720000000    -1.262000000     4.678000000
O     1.603000000    -3.564000000    -1.873000000
H     1.203000000    -2.833000000    -2.344000000
H     2.525000000    -3.539000000    -2.129000000
O     3.801000000     1.223000000     3.184000000
H     3.456000000     1.661000000     2.406000000
H     4.526000000     0.690000000     2.856000000
O     4.450000000     2.167000000    -1.868000000
H     4.838000000     1.293000000    -1.834000000
H     5.190000000     2.751000000    -2.032000000
O    -3.878000000     4.814000000    -0.596000000
H    -4.096000000     4.239000000    -1.330000000
H    -4.354000000     4.444000000     0.147000000
O     1.812000000    -2.135000000     3.042000000
H     2.652000000    -1.980000000     3.474000000
H     2.027000000    -2.693000000     2.294000000
O     2.289000000    -3.344000000     6.321000000
H     2.778000000    -3.098000000     5.535000000
H     2.458000000    -2.634000000     6.940000000
O    -3.766000000     0.500000000    -5.241000000
H    -3.685000000     1.453000000    -5.268000000
H    -3.081000000     0.218000000    -4.636000000
O     6.101000000     3.958000000     1.829000000
H     5.715000000     3.112000000     1.602000000
H     6.648000000     3.775000000     2.593000000
O    -5.173000000     3.199000000     1.525000000
H    -5.287000000     2.321000000     1.162000000
H    -6.065000000     3.519000000     1.662000000
O     5.976000000     0.211000000     2.349000000
H     6.328000000     0.505000000     1.509000000
H     6.209000000    -0.716000000     2.395000000
O     3.113000000     2.427000000     0.849000000
H     3.612000000     2.029000000     0.135000000
H     2.651000000     3.158000000     0.440000000
O    -7.301000000    -1.190000000    -0.920000000
H    -6.384000000    -1.396000000    -0.738000000
H    -7.739000000    -2.041000000    -0.939000000
O    -1.152000000    -1.313000000     6.895000000
H    -0.754000000    -0.513000000     6.551000000
H    -1.780000000    -1.576000000     6.222000000
O    -0.779000000    -2.955000000     1.247000000
H     0.077000000    -3.153000000     1.627000000
H    -0.746000000    -2.017000000     1.058000000
O     4.009000000    -0.058000000    -4.308000000
H     3.252000000    -0.602000000    -4.091000000
H     4.619000000    -0.196000000    -3.584000000
O     6.912000000     1.131000000     0.028000000
H     7.019000000     1.909000000    -0.518000000
H     7.803000000     0.808000000     0.163000000
