158
-3070.73099
C    -1.212000000     0.495000000     0.579000000
H    -2.059000000     0.797000000     1.190000000
C     0.075000000     0.596000000     1.129000000
H     0.127000000     1.093000000     2.094000000
C     1.166000000     0.077000000     0.449000000
H     2.087000000     0.116000000     0.979000000
C     1.008000000    -0.568000000    -0.835000000
H     1.866000000    -0.975000000    -1.364000000
C    -0.331000000    -0.682000000    -1.268000000
H    -0.430000000    -1.216000000    -2.210000000
C    -1.438000000    -0.169000000    -0.606000000
C    -2.860000000    -0.118000000    -1.168000000
O    -3.729000000     0.609000000    -0.646000000
O    -3.142000000    -0.895000000    -2.123000000
O    -4.018000000    -0.593000000     2.392000000
H    -4.227000000    -0.148000000     1.571000000
H    -3.315000000    -0.069000000     2.775000000
O    -8.615000000     1.323000000    -1.264000000
H    -7.813000000     0.853000000    -1.493000000
H    -8.904000000     0.920000000    -0.445000000
O    -1.500000000    -2.216000000     2.267000000
H    -1.394000000    -1.410000000     1.762000000
H    -0.613000000    -2.437000000     2.552000000
O    -2.350000000    -3.110000000    -0.418000000
H    -2.602000000    -2.429000000    -1.041000000
H    -2.935000000    -2.979000000     0.329000000
O     2.209000000     4.935000000     2.116000000
H     2.521000000     5.812000000     1.893000000
H     1.280000000     5.054000000     2.311000000
O     1.962000000    -3.895000000     0.787000000
H     1.103000000    -4.313000000     0.841000000
H     2.292000000    -4.137000000    -0.079000000
O     4.339000000     1.610000000    -4.071000000
H     5.082000000     1.007000000    -4.098000000
H     4.686000000     2.433000000    -4.415000000
O    -2.799000000     1.556000000     3.510000000
H    -1.897000000     1.749000000     3.764000000
H    -3.325000000     1.841000000     4.258000000
O    -6.076000000    -0.184000000     3.979000000
H    -5.396000000    -0.418000000     3.348000000
H    -5.601000000    -0.015000000     4.792000000
O    -3.656000000     3.354000000    -0.026000000
H    -3.584000000     2.404000000    -0.125000000
H    -4.596000000     3.514000000     0.067000000
O    -6.130000000     0.152000000    -1.889000000
H    -5.267000000     0.503000000    -1.668000000
H    -6.199000000    -0.654000000    -1.377000000
O     0.256000000     0.075000000     4.858000000
H     0.825000000    -0.478000000     4.323000000
H     0.833000000     0.764000000     5.188000000
O    -2.784000000     0.434000000    -7.115000000
H    -2.642000000     0.451000000    -6.168000000
H    -3.648000000     0.034000000    -7.220000000
O    -0.329000000     5.557000000     2.988000000
H    -1.091000000     4.980000000     3.044000000
H    -0.546000000     6.174000000     2.289000000
O    -0.624000000     3.406000000     5.245000000
H    -0.625000000     4.290000000     4.878000000
H     0.301000000     3.166000000     5.289000000
O    -4.138000000     3.019000000    -4.860000000
H    -4.554000000     3.685000000    -4.313000000
H    -3.870000000     2.337000000    -4.243000000
O    -0.377000000    -5.255000000     0.353000000
H    -0.120000000    -5.590000000    -0.507000000
H    -1.003000000    -4.558000000     0.161000000
O     2.766000000    -4.282000000    -2.106000000
H     3.720000000    -4.214000000    -2.162000000
H     2.444000000    -3.702000000    -2.797000000
O     4.243000000    -5.419000000     2.150000000
H     3.483000000    -4.997000000     1.749000000
H     4.384000000    -6.207000000     1.625000000
O    -4.770000000    -2.920000000     0.907000000
H    -4.113000000    -2.325000000     1.269000000
H    -4.804000000    -3.646000000     1.529000000
O    -4.780000000    -2.834000000    -2.844000000
H    -4.185000000    -2.233000000    -2.395000000
H    -4.676000000    -3.665000000    -2.381000000
O     5.070000000    -2.860000000     1.309000000
H     4.862000000    -3.595000000     1.885000000
H     4.296000000    -2.764000000     0.753000000
O    -3.280000000     5.393000000    -1.714000000
H    -3.876000000     5.594000000    -2.436000000
H    -3.341000000     4.444000000    -1.610000000
O    -0.210000000    -0.282000000    -6.453000000
H    -0.342000000    -0.954000000    -5.785000000
H    -1.055000000    -0.219000000    -6.900000000
O     5.422000000    -3.710000000    -2.157000000
H     5.899000000    -3.160000000    -1.535000000
H     5.783000000    -3.475000000    -3.011000000
O     3.521000000     2.858000000     3.432000000
H     4.394000000     3.244000000     3.357000000
H     2.946000000     3.477000000     2.982000000
O    -3.924000000    -5.232000000    -1.650000000
H    -3.254000000    -4.601000000    -1.390000000
H    -3.662000000    -6.049000000    -1.226000000
O     2.032000000     2.090000000     5.465000000
H     2.564000000     2.156000000     6.258000000
H     2.653000000     2.216000000     4.748000000
O    -6.525000000    -0.301000000    -4.437000000
H    -6.598000000    -0.120000000    -3.500000000
H    -7.198000000    -0.961000000    -4.606000000
O    -4.418000000    -2.470000000    -5.434000000
H    -4.817000000    -2.550000000    -4.567000000
H    -4.663000000    -1.593000000    -5.730000000
O     7.419000000    -3.472000000     0.503000000
H     8.124000000    -2.829000000     0.577000000
H     6.655000000    -3.035000000     0.879000000
O    -1.084000000    -2.381000000    -4.469000000
H    -1.345000000    -3.262000000    -4.200000000
H    -1.610000000    -1.798000000    -3.923000000
O    -7.040000000    -2.063000000    -0.135000000
H    -6.269000000    -2.509000000     0.215000000
H    -7.197000000    -2.483000000    -0.980000000
O     6.737000000    -0.640000000     2.080000000
H     6.432000000     0.189000000     1.711000000
H     6.094000000    -1.284000000     1.784000000
O     1.192000000    -2.252000000     2.919000000
H     1.708000000    -2.723000000     2.264000000
H     1.787000000    -2.145000000     3.661000000
O     4.713000000     0.492000000     4.710000000
H     4.624000000     1.132000000     4.004000000
H     5.631000000     0.555000000     4.975000000
O     0.522000000    -6.148000000    -2.049000000
H     1.073000000    -6.930000000    -2.032000000
H     1.134000000    -5.426000000    -2.191000000
O     2.245000000    -0.364000000    -4.339000000
H     3.077000000     0.038000000    -4.089000000
H     1.599000000     0.333000000    -4.228000000
O     6.158000000     2.482000000     1.285000000
H     5.328000000     2.947000000     1.391000000
H     6.509000000     2.805000000     0.456000000
O     3.051000000     4.394000000    -2.839000000
H     3.389000000     4.742000000    -3.665000000
H     3.160000000     3.446000000    -2.916000000
O     3.337000000    -1.957000000     4.433000000
H     4.016000000    -1.295000000     4.304000000
H     3.346000000    -2.128000000     5.375000000
O    -3.419000000     0.447000000    -4.365000000
H    -4.374000000     0.392000000    -4.319000000
H    -3.113000000    -0.101000000    -3.642000000
O    -6.353000000     3.644000000    -0.768000000
H    -6.324000000     3.838000000    -1.705000000
H    -7.020000000     2.962000000    -0.686000000
O     0.372000000     1.663000000    -3.784000000
H     0.218000000     1.977000000    -2.893000000
H    -0.467000000     1.785000000    -4.230000000
O    -0.419000000     2.718000000    -1.545000000
H    -0.157000000     1.935000000    -1.062000000
H    -0.456000000     3.407000000    -0.882000000
O     1.660000000    -2.857000000    -4.227000000
H     2.030000000    -1.979000000    -4.325000000
H     0.715000000    -2.714000000    -4.175000000
O    -2.352000000     3.952000000     2.260000000
H    -2.523000000     3.165000000     2.778000000
H    -2.683000000     3.739000000     1.387000000
O    -6.198000000     2.418000000     2.696000000
H    -6.977000000     2.433000000     2.140000000
H    -6.244000000     1.576000000     3.150000000
