158
-3032.78379
C    -1.322000000     0.624000000    -0.092000000
H    -2.289000000     1.117000000    -0.034000000
C    -0.418000000     0.743000000     0.978000000
H    -0.555000000     1.536000000     1.709000000
C     0.786000000     0.088000000     0.938000000
H     1.484000000     0.374000000     1.718000000
C     1.006000000    -0.919000000    -0.066000000
H     1.930000000    -1.488000000    -0.128000000
C     0.107000000    -0.992000000    -1.146000000
H     0.258000000    -1.679000000    -1.975000000
C    -1.067000000    -0.208000000    -1.132000000
C    -1.968000000    -0.208000000    -2.311000000
O    -3.102000000     0.209000000    -2.226000000
O    -1.466000000    -0.495000000    -3.376000000
O    -0.060000000    -3.690000000    -4.530000000
H     0.518000000    -3.656000000    -3.768000000
H    -0.889000000    -3.329000000    -4.218000000
O    -5.496000000    -2.580000000    -0.297000000
H    -4.699000000    -2.839000000    -0.759000000
H    -5.360000000    -1.657000000    -0.084000000
O    -5.378000000     0.084000000    -0.407000000
H    -5.145000000     0.696000000     0.291000000
H    -4.608000000     0.064000000    -0.976000000
O    -2.594000000    -0.122000000     4.604000000
H    -2.874000000    -0.729000000     5.289000000
H    -2.682000000    -0.620000000     3.792000000
O    -2.313000000     2.559000000     5.123000000
H    -2.286000000     1.628000000     4.903000000
H    -2.288000000     2.580000000     6.080000000
O     0.832000000    -0.752000000    -4.864000000
H     0.536000000    -1.560000000    -5.285000000
H     0.105000000    -0.498000000    -4.296000000
O    -0.503000000     0.755000000    -7.333000000
H     0.115000000     0.261000000    -7.872000000
H    -0.417000000     0.373000000    -6.459000000
O     1.467000000    -1.151000000     3.983000000
H     2.108000000    -0.446000000     3.893000000
H     0.950000000    -0.908000000     4.751000000
O     3.329000000     0.019000000    -5.676000000
H     2.587000000    -0.471000000    -5.323000000
H     3.216000000     0.905000000    -5.333000000
O    -0.242000000    -2.844000000     2.586000000
H     0.450000000    -2.194000000     2.703000000
H    -0.961000000    -2.531000000     3.135000000
O    -1.602000000     4.430000000    -1.124000000
H    -1.628000000     5.192000000    -0.545000000
H    -0.690000000     4.138000000    -1.094000000
O    -5.104000000     4.710000000     1.992000000
H    -4.248000000     4.318000000     2.163000000
H    -5.327000000     4.422000000     1.106000000
O     1.371000000     2.297000000     4.838000000
H     0.786000000     2.327000000     5.595000000
H     1.463000000     3.211000000     4.570000000
O    -5.759000000     1.172000000    -3.480000000
H    -5.793000000     0.672000000    -2.665000000
H    -5.242000000     0.628000000    -4.074000000
O     3.532000000     2.380000000    -0.184000000
H     4.075000000     2.964000000    -0.713000000
H     2.791000000     2.164000000    -0.749000000
O    -4.295000000     3.593000000    -4.843000000
H    -3.439000000     3.973000000    -4.646000000
H    -4.341000000     2.810000000    -4.294000000
O    -5.008000000    -2.178000000    -4.016000000
H    -4.486000000    -2.235000000    -4.816000000
H    -4.468000000    -2.599000000    -3.347000000
O    -6.102000000     3.129000000    -0.223000000
H    -5.359000000     3.064000000    -0.823000000
H    -6.849000000     3.328000000    -0.788000000
O    -3.592000000     0.144000000    -5.027000000
H    -3.402000000    -0.072000000    -4.114000000
H    -3.156000000     0.983000000    -5.171000000
O    -3.339000000    -3.507000000    -2.113000000
H    -2.692000000    -3.331000000    -1.431000000
H    -3.231000000    -4.438000000    -2.311000000
O    -2.437000000    -2.358000000    -5.524000000
H    -2.449000000    -2.414000000    -6.479000000
H    -2.478000000    -1.419000000    -5.338000000
O    -3.904000000     2.629000000    -1.583000000
H    -3.111000000     3.120000000    -1.368000000
H    -3.588000000     1.755000000    -1.816000000
O     4.560000000     1.891000000     2.161000000
H     5.325000000     2.460000000     2.242000000
H     4.337000000     1.919000000     1.231000000
O    -2.260000000    -2.588000000     0.346000000
H    -1.526000000    -1.996000000     0.509000000
H    -2.643000000    -2.739000000     1.210000000
O     4.591000000    -2.009000000     0.438000000
H     4.321000000    -1.668000000     1.291000000
H     4.334000000    -2.932000000     0.458000000
O    -8.042000000    -0.145000000    -0.863000000
H    -7.091000000    -0.095000000    -0.762000000
H    -8.314000000     0.759000000    -1.019000000
O     3.507000000    -1.728000000    -2.416000000
H     3.511000000    -1.824000000    -1.463000000
H     2.691000000    -1.267000000    -2.607000000
O     0.926000000     3.988000000     0.525000000
H     1.639000000     3.704000000     1.098000000
H     1.021000000     4.939000000     0.477000000
O     0.708000000    -4.565000000     0.571000000
H     0.539000000    -4.037000000     1.351000000
H     0.947000000    -5.427000000     0.913000000
O     3.709000000    -4.837000000     1.006000000
H     4.036000000    -5.506000000     1.607000000
H     3.377000000    -5.329000000     0.256000000
O    -0.845000000     2.167000000    -4.198000000
H     0.108000000     2.089000000    -4.255000000
H    -1.155000000     1.264000000    -4.124000000
O    -4.127000000     1.039000000     1.827000000
H    -3.607000000     1.841000000     1.769000000
H    -4.385000000     0.988000000     2.747000000
O    -1.965000000     4.649000000    -3.830000000
H    -1.838000000     4.625000000    -2.882000000
H    -1.629000000     3.808000000    -4.139000000
O    -3.658000000    -4.641000000    -5.326000000
H    -3.047000000    -5.169000000    -5.841000000
H    -3.222000000    -3.794000000    -5.233000000
O     2.470000000     4.350000000     2.717000000
H     3.117000000     3.660000000     2.573000000
H     2.919000000     4.986000000     3.275000000
O     7.002000000    -0.591000000     0.611000000
H     7.505000000    -0.943000000    -0.124000000
H     6.140000000    -0.999000000     0.528000000
O     0.149000000    -0.210000000     6.510000000
H     0.471000000     0.297000000     7.255000000
H    -0.569000000     0.314000000     6.155000000
O    -0.483000000    -3.143000000     5.958000000
H    -0.596000000    -2.337000000     6.460000000
H     0.445000000    -3.152000000     5.723000000
O     5.183000000    -1.087000000     3.105000000
H     4.784000000    -0.889000000     3.952000000
H     5.581000000    -0.262000000     2.828000000
O     5.021000000     0.791000000    -3.534000000
H     4.919000000     0.037000000    -2.954000000
H     4.832000000     0.449000000    -4.408000000
O     1.231000000    -3.791000000    -2.166000000
H     2.177000000    -3.780000000    -2.022000000
H     0.864000000    -4.068000000    -1.326000000
O    -2.543000000     3.332000000     2.454000000
H    -1.661000000     3.243000000     2.092000000
H    -2.443000000     3.128000000     3.383000000
O     0.818000000    -5.324000000     3.348000000
H     0.550000000    -4.449000000     3.629000000
H    -0.002000000    -5.811000000     3.267000000
O    -0.268000000     5.099000000     3.679000000
H     0.366000000     4.834000000     3.012000000
H     0.128000000     5.866000000     4.094000000
O     3.509000000     0.740000000     4.578000000
H     2.698000000     1.120000000     4.916000000
H     3.703000000     1.250000000     3.792000000
O     1.093000000     2.299000000    -1.340000000
H     0.950000000     2.942000000    -0.646000000
H     0.873000000     1.459000000    -0.937000000
O     2.207000000     2.232000000    -4.172000000
H     2.654000000     3.071000000    -4.277000000
H     2.024000000     2.173000000    -3.235000000
O     4.342000000    -0.083000000     7.084000000
H     4.118000000     0.184000000     6.193000000
H     5.236000000     0.234000000     7.212000000
