158
-3018.64256
C    -1.266000000    -0.570000000     0.515000000
H    -2.154000000    -0.921000000     1.034000000
C    -0.345000000     0.124000000     1.277000000
H    -0.519000000     0.279000000     2.339000000
C     0.794000000     0.588000000     0.681000000
H     1.599000000     1.170000000     1.304000000
C     1.024000000     0.276000000    -0.612000000
H     1.973000000     0.625000000    -1.010000000
C     0.129000000    -0.359000000    -1.438000000
H     0.335000000    -0.387000000    -2.505000000
C    -1.050000000    -0.800000000    -0.859000000
C    -2.015000000    -1.534000000    -1.738000000
O    -2.934000000    -2.071000000    -1.147000000
O    -1.941000000    -1.589000000    -2.982000000
O    -2.875000000    -5.216000000     1.767000000
H    -2.909000000    -5.510000000     0.857000000
H    -3.240000000    -4.331000000     1.746000000
O    -4.001000000    -2.888000000     1.130000000
H    -4.377000000    -2.089000000     1.499000000
H    -3.532000000    -2.595000000     0.349000000
O    -3.510000000     1.054000000     5.390000000
H    -3.243000000     0.833000000     6.283000000
H    -2.688000000     1.212000000     4.926000000
O    -0.792000000     5.500000000    -1.328000000
H    -0.264000000     5.887000000    -0.629000000
H    -1.324000000     4.837000000    -0.889000000
O    -0.895000000     6.178000000     2.998000000
H    -0.832000000     5.998000000     3.936000000
H    -0.462000000     7.024000000     2.886000000
O     2.508000000    -4.740000000    -2.617000000
H     3.437000000    -4.623000000    -2.420000000
H     2.054000000    -4.233000000    -1.944000000
O     5.410000000     3.195000000     3.063000000
H     5.958000000     3.588000000     2.383000000
H     6.000000000     3.080000000     3.808000000
O     0.660000000    -0.439000000    -6.041000000
H     0.328000000    -0.615000000    -6.921000000
H     0.673000000    -1.296000000    -5.615000000
O     2.580000000     3.804000000     1.521000000
H     2.805000000     3.115000000     2.146000000
H     2.653000000     4.616000000     2.022000000
O     2.891000000    -1.615000000    -4.102000000
H     3.149000000    -2.535000000    -4.156000000
H     1.934000000    -1.634000000    -4.096000000
O     0.689000000    -3.120000000     0.811000000
H     0.245000000    -3.598000000     0.111000000
H     0.622000000    -2.201000000     0.554000000
O     2.984000000     0.000000000     6.359000000
H     3.705000000    -0.579000000     6.606000000
H     3.047000000     0.067000000     5.406000000
O     0.228000000     3.043000000     4.146000000
H     1.147000000     2.782000000     4.093000000
H     0.237000000     3.988000000     3.993000000
O    -4.745000000     0.598000000     1.347000000
H    -5.148000000     1.411000000     1.652000000
H    -3.975000000     0.489000000     1.905000000
O    -2.922000000    -2.069000000    -5.233000000
H    -2.702000000    -1.930000000    -4.312000000
H    -2.697000000    -2.985000000    -5.398000000
O    -2.443000000     2.125000000     2.784000000
H    -2.670000000     2.768000000     2.112000000
H    -1.822000000     2.582000000     3.351000000
O    -4.782000000     1.947000000    -2.531000000
H    -5.341000000     1.216000000    -2.270000000
H    -5.259000000     2.727000000    -2.247000000
O     4.189000000     1.024000000     0.242000000
H     4.393000000     1.077000000     1.175000000
H     4.145000000     1.936000000    -0.046000000
O    -1.116000000     4.188000000    -3.949000000
H    -0.780000000     4.776000000    -3.273000000
H    -0.387000000     3.596000000    -4.136000000
O    -3.018000000    -4.582000000    -1.823000000
H    -3.952000000    -4.743000000    -1.956000000
H    -2.970000000    -3.668000000    -1.542000000
O    -2.897000000     0.853000000    -4.068000000
H    -2.451000000     0.117000000    -3.649000000
H    -3.377000000     1.278000000    -3.356000000
O    -0.064000000    -4.590000000    -1.342000000
H     0.340000000    -5.416000000    -1.608000000
H    -0.924000000    -4.598000000    -1.762000000
O     1.772000000     3.727000000    -3.481000000
H     2.006000000     2.831000000    -3.723000000
H     1.873000000     4.228000000    -4.290000000
O     0.204000000    -2.716000000    -4.102000000
H    -0.064000000    -3.635000000    -4.107000000
H    -0.562000000    -2.246000000    -3.772000000
O     6.127000000     4.321000000    -1.110000000
H     6.302000000     4.023000000    -0.217000000
H     5.174000000     4.404000000    -1.152000000
O    -6.426000000     0.128000000    -0.900000000
H    -7.239000000    -0.095000000    -0.446000000
H    -5.880000000     0.535000000    -0.228000000
O    -2.195000000     5.053000000     0.981000000
H    -1.527000000     4.408000000     0.750000000
H    -1.875000000     5.448000000     1.793000000
O     3.129000000     0.245000000     3.713000000
H     3.983000000     0.261000000     3.281000000
H     3.001000000     1.142000000     4.023000000
O    -3.121000000    -0.518000000    -7.406000000
H    -3.255000000    -1.069000000    -6.635000000
H    -3.118000000     0.376000000    -7.064000000
O    -5.406000000    -2.313000000    -1.551000000
H    -4.456000000    -2.255000000    -1.447000000
H    -5.731000000    -1.463000000    -1.255000000
O    -5.498000000    -0.565000000    -4.351000000
H    -5.202000000    -1.116000000    -3.627000000
H    -4.751000000     0.004000000    -4.540000000
O     5.202000000    -2.438000000    -1.760000000
H     4.638000000    -2.456000000    -0.987000000
H     5.035000000    -1.584000000    -2.159000000
O     2.879000000     1.204000000    -6.700000000
H     3.192000000     1.236000000    -5.796000000
H     2.149000000     0.585000000    -6.679000000
O     2.552000000     5.960000000     2.706000000
H     3.018000000     6.133000000     3.524000000
H     2.053000000     6.760000000     2.541000000
O     5.513000000    -0.560000000     2.535000000
H     5.639000000    -1.280000000     3.153000000
H     6.081000000    -0.779000000     1.795000000
O    -0.107000000     2.491000000    -6.273000000
H     0.279000000     1.667000000    -5.977000000
H    -0.988000000     2.252000000    -6.562000000
O    -3.970000000    -1.413000000     3.872000000
H    -3.117000000    -1.846000000     3.895000000
H    -3.783000000    -0.504000000     4.108000000
O    -0.107000000     3.504000000     0.437000000
H     0.216000000     2.614000000     0.292000000
H     0.628000000     3.963000000     0.844000000
O     3.109000000     2.917000000     4.226000000
H     3.060000000     3.276000000     5.112000000
H     3.960000000     3.205000000     3.897000000
O    -2.853000000     2.018000000    -6.439000000
H    -3.706000000     2.452000000    -6.460000000
H    -2.811000000     1.615000000    -5.571000000
O     3.489000000    -2.149000000     0.365000000
H     3.425000000    -1.194000000     0.397000000
H     2.599000000    -2.454000000     0.536000000
O     3.098000000     1.229000000    -3.628000000
H     2.922000000     0.288000000    -3.652000000
H     4.034000000     1.293000000    -3.438000000
O    -0.972000000     1.724000000     6.295000000
H    -1.474000000     2.528000000     6.430000000
H    -0.395000000     1.922000000     5.557000000
O     1.545000000    -2.512000000     3.601000000
H     0.924000000    -2.742000000     2.909000000
H     1.571000000    -1.555000000     3.590000000
O    -1.950000000    -4.369000000     4.238000000
H    -2.143000000    -4.722000000     3.369000000
H    -1.177000000    -4.854000000     4.527000000
O     3.185000000     4.017000000    -1.078000000
H     2.882000000     3.519000000    -1.837000000
H     2.547000000     3.821000000    -0.392000000
O    -6.464000000    -4.340000000     0.302000000
H    -6.507000000    -3.703000000    -0.411000000
H    -5.866000000    -3.948000000     0.938000000
O     3.706000000    -3.397000000     4.670000000
H     2.902000000    -3.098000000     4.244000000
H     3.965000000    -2.667000000     5.233000000
