158
-3038.97083
C    -1.205000000    -0.589000000     0.604000000
H    -2.013000000    -0.951000000     1.234000000
C    -0.189000000     0.046000000     1.254000000
H    -0.312000000     0.142000000     2.330000000
C     0.845000000     0.621000000     0.557000000
H     1.712000000     1.083000000     1.044000000
C     0.943000000     0.485000000    -0.825000000
H     1.863000000     0.729000000    -1.349000000
C    -0.002000000    -0.251000000    -1.494000000
H     0.004000000    -0.224000000    -2.581000000
C    -1.098000000    -0.843000000    -0.781000000
C    -2.081000000    -1.626000000    -1.484000000
O    -2.929000000    -2.186000000    -0.814000000
O    -2.004000000    -1.766000000    -2.674000000
O    -1.237000000    -4.753000000     2.590000000
H    -1.768000000    -5.231000000     1.953000000
H    -1.570000000    -3.856000000     2.554000000
O    -4.752000000    -1.085000000     0.792000000
H    -4.484000000    -0.221000000     0.477000000
H    -4.338000000    -1.699000000     0.186000000
O    -0.133000000     0.347000000     5.311000000
H    -0.071000000     0.805000000     6.149000000
H     0.241000000     0.958000000     4.676000000
O     2.104000000     3.699000000    -1.728000000
H     3.019000000     3.945000000    -1.587000000
H     1.747000000     3.592000000    -0.846000000
O     0.252000000     5.454000000     2.922000000
H    -0.683000000     5.579000000     2.762000000
H     0.453000000     6.050000000     3.644000000
O     4.205000000    -3.641000000    -0.788000000
H     4.519000000    -2.742000000    -0.690000000
H     4.551000000    -4.101000000    -0.023000000
O     0.960000000    -4.472000000    -5.464000000
H     0.384000000    -4.100000000    -6.132000000
H     0.749000000    -3.986000000    -4.667000000
O    -5.089000000    -5.162000000    -5.371000000
H    -5.846000000    -4.588000000    -5.491000000
H    -4.727000000    -4.907000000    -4.523000000
O     2.652000000     6.558000000    -0.049000000
H     1.811000000     6.310000000     0.336000000
H     3.139000000     5.736000000    -0.109000000
O     0.825000000     3.922000000     0.675000000
H     0.435000000     3.065000000     0.844000000
H     0.516000000     4.472000000     1.395000000
O     4.109000000    -2.834000000    -3.410000000
H     4.268000000    -3.334000000    -2.609000000
H     3.210000000    -3.053000000    -3.655000000
O     1.793000000    -2.137000000     0.947000000
H     1.232000000    -1.373000000     1.084000000
H     1.959000000    -2.146000000     0.005000000
O    -4.798000000     2.890000000     2.039000000
H    -5.355000000     2.112000000     2.003000000
H    -4.917000000     3.309000000     1.187000000
O     1.705000000     2.147000000     3.748000000
H     1.692000000     2.768000000     3.020000000
H     2.635000000     1.988000000     3.912000000
O    -6.394000000     0.793000000     2.305000000
H    -6.185000000     0.008000000     1.799000000
H    -7.348000000     0.779000000     2.386000000
O    -3.171000000    -4.218000000    -2.995000000
H    -3.009000000    -3.333000000    -2.669000000
H    -3.174000000    -4.765000000    -2.210000000
O    -2.942000000     1.546000000     3.355000000
H    -2.443000000     2.221000000     3.815000000
H    -3.702000000     2.009000000     3.003000000
O    -4.440000000     1.029000000    -1.327000000
H    -5.298000000     0.692000000    -1.585000000
H    -4.601000000     1.944000000    -1.096000000
O     5.166000000     1.110000000     1.772000000
H     4.484000000     0.516000000     2.083000000
H     5.422000000     1.609000000     2.548000000
O    -0.764000000     3.969000000    -3.139000000
H    -1.164000000     4.126000000    -2.284000000
H     0.178000000     3.969000000    -2.967000000
O    -2.687000000    -4.845000000    -0.018000000
H    -3.479000000    -5.285000000    -0.326000000
H    -2.894000000    -3.912000000    -0.075000000
O    -3.689000000    -1.168000000     4.184000000
H    -2.816000000    -1.424000000     3.886000000
H    -3.661000000    -0.212000000     4.214000000
O    -3.133000000     0.446000000    -3.758000000
H    -2.749000000    -0.370000000    -3.437000000
H    -3.528000000     0.846000000    -2.982000000
O     5.920000000     5.055000000     1.876000000
H     5.049000000     4.777000000     2.157000000
H     5.843000000     5.163000000     0.928000000
O     0.046000000    -4.439000000    -0.960000000
H     0.486000000    -5.286000000    -0.900000000
H    -0.725000000    -4.528000000    -0.400000000
O     2.280000000     3.421000000    -4.426000000
H     2.283000000     3.646000000    -3.495000000
H     1.911000000     2.538000000    -4.457000000
O     0.384000000    -2.990000000    -3.331000000
H     0.264000000    -3.658000000    -2.656000000
H    -0.305000000    -2.349000000    -3.160000000
O    -7.018000000     0.315000000    -1.978000000
H    -7.780000000     0.434000000    -1.411000000
H    -6.987000000    -0.627000000    -2.145000000
O     4.701000000     4.654000000    -0.931000000
H     5.367000000     5.319000000    -1.107000000
H     5.175000000     3.823000000    -0.974000000
O    -2.132000000     5.298000000     1.599000000
H    -2.179000000     5.470000000     0.659000000
H    -1.868000000     4.380000000     1.662000000
O    -4.670000000    -6.516000000    -0.725000000
H    -4.826000000    -6.785000000     0.180000000
H    -5.420000000    -5.962000000    -0.943000000
O    -2.419000000    -1.844000000    -5.424000000
H    -1.603000000    -2.119000000    -5.842000000
H    -2.283000000    -2.021000000    -4.494000000
O    -5.920000000    -2.430000000    -2.349000000
H    -5.115000000    -2.653000000    -1.881000000
H    -5.622000000    -1.956000000    -3.126000000
O    -5.185000000    -1.260000000    -4.532000000
H    -4.446000000    -1.603000000    -5.034000000
H    -5.080000000    -0.310000000    -4.569000000
O     5.945000000    -1.742000000    -0.736000000
H     6.735000000    -1.667000000    -1.271000000
H     5.725000000    -0.840000000    -0.505000000
O     3.400000000     0.187000000    -6.596000000
H     4.100000000     0.478000000    -6.012000000
H     2.595000000     0.349000000    -6.104000000
O     3.445000000     4.681000000     3.102000000
H     3.689000000     3.810000000     3.415000000
H     2.742000000     4.959000000     3.688000000
O     1.162000000     1.107000000    -5.291000000
H     0.382000000     1.026000000    -4.742000000
H     0.822000000     1.318000000    -6.161000000
O    -0.964000000    -1.945000000     3.835000000
H    -0.738000000    -1.111000000     4.247000000
H    -0.145000000    -2.440000000     3.831000000
O    -1.754000000     2.699000000     0.867000000
H    -1.674000000     2.747000000    -0.086000000
H    -2.314000000     1.939000000     1.023000000
O     4.331000000     2.547000000     4.517000000
H     4.202000000     2.745000000     5.445000000
H     5.268000000     2.369000000     4.438000000
O    -1.575000000     2.113000000    -5.347000000
H    -1.051000000     2.803000000    -4.940000000
H    -2.173000000     1.827000000    -4.656000000
O     3.343000000    -0.670000000     2.938000000
H     2.778000000    -0.565000000     3.704000000
H     3.095000000    -1.518000000     2.572000000
O     4.933000000     0.128000000    -2.810000000
H     4.909000000    -0.820000000    -2.946000000
H     4.689000000     0.498000000    -3.658000000
O     0.890000000     3.073000000     6.058000000
H     1.705000000     3.403000000     6.437000000
H     1.109000000     2.884000000     5.146000000
O     1.439000000    -3.312000000     3.374000000
H     1.558000000    -2.939000000     2.501000000
H     1.334000000    -4.251000000     3.221000000
O     5.611000000     1.968000000    -0.743000000
H     5.320000000     1.319000000    -1.384000000
H     5.535000000     1.523000000     0.100000000
O    -5.792000000    -3.523000000     0.703000000
H    -6.548000000    -3.492000000     0.117000000
H    -5.528000000    -2.608000000     0.801000000
