158
-3049.86988
C    -0.966000000     0.500000000     0.984000000
H    -1.605000000     0.810000000     1.807000000
C    -0.195000000    -0.666000000     1.152000000
H    -0.232000000    -1.306000000     2.030000000
C     0.733000000    -1.003000000     0.114000000
H     1.362000000    -1.822000000     0.252000000
C     0.746000000    -0.250000000    -1.033000000
H     1.373000000    -0.651000000    -1.825000000
C    -0.013000000     0.955000000    -1.199000000
H     0.058000000     1.597000000    -2.074000000
C    -0.798000000     1.333000000    -0.127000000
C    -1.797000000     2.489000000    -0.195000000
O    -2.384000000     2.811000000     0.829000000
O    -1.806000000     3.116000000    -1.292000000
O    -5.149000000     0.063000000     3.997000000
H    -4.794000000     0.633000000     3.315000000
H    -4.735000000     0.369000000     4.804000000
O    -3.946000000     5.140000000     0.495000000
H    -3.283000000     5.602000000    -0.018000000
H    -3.616000000     4.243000000     0.559000000
O     2.476000000    -0.267000000     2.820000000
H     3.240000000     0.100000000     3.266000000
H     2.025000000     0.493000000     2.453000000
O     0.726000000     1.871000000    -5.409000000
H     1.181000000     2.569000000    -4.938000000
H    -0.201000000     2.020000000    -5.219000000
O     2.941000000    -3.652000000    -5.662000000
H     2.135000000    -3.139000000    -5.610000000
H     2.854000000    -4.153000000    -6.473000000
O    -2.572000000     2.613000000     5.454000000
H    -3.296000000     3.208000000     5.262000000
H    -1.935000000     2.778000000     4.759000000
O     1.434000000     2.376000000     2.293000000
H     2.068000000     2.554000000     1.599000000
H     1.896000000     2.595000000     3.102000000
O    -1.513000000     7.175000000    -0.527000000
H    -2.082000000     7.882000000    -0.831000000
H    -1.059000000     7.543000000     0.231000000
O    -0.632000000    -3.466000000    -2.597000000
H     0.137000000    -3.684000000    -2.071000000
H    -1.278000000    -3.159000000    -1.961000000
O     1.625000000     5.801000000     1.744000000
H     1.133000000     6.119000000     2.500000000
H     0.970000000     5.370000000     1.195000000
O     4.194000000    -6.004000000     1.617000000
H     4.292000000    -5.076000000     1.404000000
H     4.728000000    -6.457000000     0.965000000
O    -6.973000000     3.267000000     1.539000000
H    -6.148000000     3.185000000     2.018000000
H    -6.832000000     2.769000000     0.734000000
O     6.078000000    -2.082000000     2.325000000
H     6.919000000    -2.360000000     1.961000000
H     5.425000000    -2.547000000     1.802000000
O    -2.200000000     0.142000000    -5.488000000
H    -1.909000000     0.983000000    -5.135000000
H    -3.100000000     0.050000000    -5.176000000
O    -4.375000000     2.877000000    -2.507000000
H    -3.456000000     3.083000000    -2.336000000
H    -4.697000000     3.624000000    -3.011000000
O    -4.949000000     5.533000000    -3.750000000
H    -5.808000000     5.936000000    -3.879000000
H    -4.335000000     6.140000000    -4.162000000
O     3.079000000     2.606000000    -0.099000000
H     3.342000000     1.722000000    -0.355000000
H     2.364000000     2.825000000    -0.696000000
O    -2.130000000    -2.229000000    -0.496000000
H    -1.656000000    -1.944000000     0.285000000
H    -2.503000000    -1.424000000    -0.856000000
O     5.649000000    -0.865000000    -2.621000000
H     6.387000000    -1.293000000    -2.187000000
H     5.243000000    -1.557000000    -3.143000000
O    -0.404000000    -4.442000000     4.182000000
H    -0.195000000    -4.248000000     5.096000000
H    -0.731000000    -5.341000000     4.197000000
O    -0.265000000    -7.496000000     0.950000000
H    -1.032000000    -7.021000000     1.271000000
H     0.291000000    -6.819000000     0.563000000
O    -4.917000000     6.947000000     2.574000000
H    -5.143000000     7.755000000     2.113000000
H    -4.430000000     6.433000000     1.929000000
O     0.860000000     3.303000000     5.361000000
H     1.694000000     3.750000000     5.217000000
H     0.286000000     3.640000000     4.673000000
O    -2.974000000    -0.047000000    -1.927000000
H    -2.695000000     0.361000000    -2.747000000
H    -3.783000000     0.409000000    -1.695000000
O     0.421000000    -2.082000000    -4.851000000
H     0.477000000    -1.274000000    -4.341000000
H     0.088000000    -2.732000000    -4.234000000
O    -4.445000000     1.723000000     1.762000000
H    -3.658000000     2.169000000     1.449000000
H    -4.861000000     1.385000000     0.969000000
O     3.824000000    -0.005000000    -0.662000000
H     4.467000000    -0.251000000    -1.326000000
H     2.987000000    -0.006000000    -1.127000000
O     4.385000000    -3.264000000     0.710000000
H     4.154000000    -2.663000000     0.002000000
H     3.631000000    -3.239000000     1.300000000
O     1.927000000    -3.865000000    -1.308000000
H     1.580000000    -3.828000000    -0.417000000
H     1.914000000    -4.796000000    -1.531000000
O    -6.122000000     6.270000000    -1.022000000
H    -5.329000000     5.823000000    -0.726000000
H    -6.062000000     6.260000000    -1.977000000
O    -5.993000000     1.709000000    -0.746000000
H    -5.617000000     2.223000000    -1.461000000
H    -6.062000000     0.822000000    -1.101000000
O    -1.928000000     2.598000000    -3.955000000
H    -1.713000000     3.360000000    -4.492000000
H    -1.812000000     2.900000000    -3.054000000
O    -1.894000000    -0.049000000     5.807000000
H    -1.856000000     0.906000000     5.758000000
H    -2.729000000    -0.234000000     6.238000000
O    -4.688000000    -2.448000000     2.241000000
H    -4.905000000    -1.527000000     2.383000000
H    -4.008000000    -2.637000000     2.889000000
O    -4.088000000    -3.697000000    -1.825000000
H    -3.364000000    -3.315000000    -1.330000000
H    -4.856000000    -3.197000000    -1.550000000
O     0.497000000    -4.674000000     1.267000000
H    -0.242000000    -4.134000000     1.547000000
H     1.006000000    -4.815000000     2.065000000
O     1.063000000     4.211000000    -3.455000000
H     0.331000000     4.596000000    -3.936000000
H     0.887000000     4.424000000    -2.539000000
O     0.111000000     4.822000000    -0.382000000
H    -0.046000000     5.676000000    -0.786000000
H    -0.718000000     4.353000000    -0.486000000
O     2.861000000     1.981000000    -2.822000000
H     2.590000000     2.807000000    -3.223000000
H     3.214000000     1.467000000    -3.549000000
O    -1.225000000     4.947000000    -5.206000000
H    -1.656000000     5.773000000    -4.984000000
H    -1.683000000     4.641000000    -5.989000000
O     6.144000000     2.252000000    -2.423000000
H     5.345000000     1.764000000    -2.225000000
H     6.854000000     1.646000000    -2.212000000
O     2.666000000    -2.997000000     2.636000000
H     2.506000000    -2.083000000     2.399000000
H     2.444000000    -3.046000000     3.566000000
O     0.099000000     5.667000000     3.961000000
H    -0.511000000     5.036000000     3.581000000
H    -0.461000000     6.297000000     4.415000000
O    -2.443000000    -2.222000000     3.888000000
H    -1.788000000    -2.905000000     4.028000000
H    -2.186000000    -1.516000000     4.482000000
O     1.997000000    -6.627000000    -1.577000000
H     2.297000000    -7.531000000    -1.485000000
H     1.318000000    -6.668000000    -2.250000000
O     3.763000000    -2.835000000    -3.081000000
H     3.078000000    -3.114000000    -2.473000000
H     3.401000000    -3.015000000    -3.948000000
O    -4.727000000     0.689000000    -4.482000000
H    -4.511000000     1.516000000    -4.050000000
H    -5.188000000     0.183000000    -3.813000000
O    -1.114000000     3.372000000     3.027000000
H    -0.452000000     2.735000000     2.757000000
H    -1.807000000     3.288000000     2.372000000
