158
-3044.03722
C     0.084000000     0.112000000     1.453000000
H     0.243000000    -0.022000000     2.519000000
C    -0.841000000    -0.667000000     0.823000000
H    -1.597000000    -1.230000000     1.365000000
C    -0.893000000    -0.596000000    -0.593000000
H    -1.606000000    -1.227000000    -1.180000000
C     0.110000000     0.017000000    -1.320000000
H     0.122000000    -0.121000000    -2.398000000
C     1.102000000     0.759000000    -0.621000000
H     1.946000000     1.146000000    -1.185000000
C     1.039000000     0.889000000     0.775000000
C     2.069000000     1.620000000     1.547000000
O     2.850000000     2.342000000     0.937000000
O     2.198000000     1.539000000     2.784000000
O    -2.140000000    -6.090000000     4.001000000
H    -1.811000000    -5.303000000     3.567000000
H    -1.914000000    -5.968000000     4.923000000
O    -1.667000000     2.545000000     1.885000000
H    -1.483000000     1.631000000     1.666000000
H    -2.478000000     2.511000000     2.391000000
O    -3.904000000    -5.868000000     1.165000000
H    -3.524000000    -6.684000000     1.490000000
H    -3.163000000    -5.265000000     1.104000000
O     1.239000000    -2.067000000    -6.325000000
H     0.655000000    -2.542000000    -6.916000000
H     1.782000000    -1.532000000    -6.905000000
O     3.568000000    -0.814000000     3.686000000
H     3.707000000    -1.247000000     2.844000000
H     3.241000000     0.056000000     3.458000000
O    -6.406000000    -0.225000000    -4.294000000
H    -5.669000000    -0.092000000    -4.891000000
H    -5.998000000    -0.446000000    -3.456000000
O     3.208000000    -2.602000000    -4.552000000
H     3.255000000    -3.551000000    -4.436000000
H     2.608000000    -2.480000000    -5.288000000
O    -2.818000000     0.870000000     5.651000000
H    -2.047000000     1.290000000     6.032000000
H    -3.064000000     1.437000000     4.920000000
O    -3.608000000    -2.702000000    -2.940000000
H    -3.815000000    -1.767000000    -2.941000000
H    -3.683000000    -2.963000000    -2.022000000
O    -5.386000000    -0.421000000     2.029000000
H    -4.952000000    -0.788000000     2.800000000
H    -6.175000000    -0.003000000     2.375000000
O    -3.368000000    -1.885000000     4.854000000
H    -3.198000000    -0.989000000     5.144000000
H    -2.509000000    -2.307000000     4.864000000
O     0.542000000    -4.808000000    -4.222000000
H    -0.289000000    -4.814000000    -3.748000000
H     0.292000000    -4.734000000    -5.143000000
O     4.394000000     2.405000000     3.858000000
H     3.907000000     2.403000000     4.682000000
H     3.731000000     2.237000000     3.188000000
O    -3.173000000     3.009000000    -3.171000000
H    -3.688000000     3.463000000    -3.838000000
H    -3.716000000     3.045000000    -2.383000000
O     2.280000000     2.545000000    -3.890000000
H     2.383000000     3.497000000    -3.906000000
H     1.340000000     2.407000000    -3.776000000
O     3.334000000    -3.105000000     1.506000000
H     3.459000000    -2.233000000     1.131000000
H     4.218000000    -3.464000000     1.578000000
O    -0.639000000     1.982000000     7.145000000
H    -0.454000000     2.828000000     7.554000000
H    -0.068000000     1.959000000     6.376000000
O    -6.749000000     0.503000000    -1.290000000
H    -5.869000000     0.170000000    -1.118000000
H    -7.197000000     0.445000000    -0.447000000
O     6.350000000     4.708000000     2.889000000
H     7.136000000     4.245000000     3.179000000
H     5.627000000     4.228000000     3.291000000
O     5.487000000    -1.394000000     5.589000000
H     5.807000000    -2.222000000     5.230000000
H     4.875000000    -1.068000000     4.929000000
O     6.826000000     2.493000000     5.086000000
H     6.952000000     1.658000000     5.538000000
H     5.998000000     2.388000000     4.617000000
O     1.783000000     4.959000000     4.140000000
H     0.845000000     4.826000000     4.272000000
H     2.010000000     4.366000000     3.423000000
O    -1.169000000    -1.159000000    -4.506000000
H    -0.325000000    -1.061000000    -4.065000000
H    -1.766000000    -1.451000000    -3.817000000
O     1.578000000    -5.492000000    -1.391000000
H     1.430000000    -4.742000000    -0.814000000
H     1.759000000    -5.103000000    -2.246000000
O     0.904000000    -3.184000000    -0.262000000
H     0.111000000    -2.658000000    -0.165000000
H     1.232000000    -3.289000000     0.631000000
O     0.779000000     1.540000000     4.952000000
H     0.829000000     0.618000000     5.202000000
H     1.324000000     1.605000000     4.167000000
O    -1.914000000     0.543000000    -6.410000000
H    -2.829000000     0.261000000    -6.414000000
H    -1.471000000    -0.088000000    -5.843000000
O    -0.637000000    -3.002000000     4.521000000
H     0.012000000    -2.354000000     4.793000000
H    -0.141000000    -3.636000000     4.004000000
O     4.961000000     3.659000000     0.407000000
H     5.424000000     4.042000000     1.153000000
H     4.197000000     3.232000000     0.794000000
O     3.838000000    -0.613000000     0.504000000
H     3.529000000    -0.927000000    -0.346000000
H     3.565000000     0.304000000     0.534000000
O    -4.741000000    -2.707000000    -5.827000000
H    -4.793000000    -3.232000000    -5.028000000
H    -3.892000000    -2.933000000    -6.207000000
O    -2.225000000    -5.032000000    -3.196000000
H    -3.050000000    -5.484000000    -3.016000000
H    -2.482000000    -4.125000000    -3.365000000
O     3.188000000     2.464000000     6.436000000
H     2.347000000     2.351000000     5.995000000
H     3.002000000     2.284000000     7.358000000
O    -1.042000000     4.704000000     0.030000000
H    -0.143000000     4.430000000    -0.153000000
H    -1.470000000     3.915000000     0.362000000
O    -1.477000000    -4.788000000     1.020000000
H    -0.733000000    -4.397000000     1.478000000
H    -1.122000000    -5.583000000     0.622000000
O     1.010000000    -4.317000000     2.428000000
H     1.111000000    -5.153000000     2.883000000
H     1.906000000    -4.028000000     2.255000000
O     6.396000000     5.601000000    -0.937000000
H     6.412000000     5.450000000    -1.882000000
H     5.638000000     5.106000000    -0.628000000
O    -3.659000000    -3.376000000    -0.065000000
H    -4.128000000    -4.199000000     0.074000000
H    -2.761000000    -3.563000000     0.209000000
O     2.670000000    -1.487000000    -1.948000000
H     2.045000000    -2.071000000    -1.518000000
H     2.649000000    -1.749000000    -2.868000000
O     5.806000000     1.559000000    -1.329000000
H     5.873000000     0.803000000    -0.746000000
H     5.536000000     2.279000000    -0.759000000
O    -0.951000000     4.719000000     4.562000000
H    -1.361000000     3.876000000     4.370000000
H    -1.215000000     5.285000000     3.837000000
O    -3.570000000     0.278000000    -2.666000000
H    -3.556000000     0.182000000    -1.713000000
H    -3.403000000     1.209000000    -2.815000000
O     1.581000000     4.073000000    -0.634000000
H     2.281000000     3.474000000    -0.376000000
H     1.973000000     4.944000000    -0.569000000
O    -4.116000000    -0.631000000    -0.173000000
H    -3.761000000    -1.494000000     0.041000000
H    -4.760000000    -0.459000000     0.513000000
O     4.624000000     1.246000000    -3.952000000
H     4.856000000     1.278000000    -3.024000000
H     3.757000000     1.647000000    -3.996000000
O     1.513000000    -1.379000000     5.209000000
H     2.306000000    -1.222000000     4.697000000
H     1.815000000    -1.408000000     6.116000000
O    -0.548000000     2.559000000    -4.276000000
H    -1.134000000     2.449000000    -3.527000000
H    -1.057000000     2.250000000    -5.025000000
O    -6.534000000    -3.136000000    -0.284000000
H    -6.748000000    -4.058000000    -0.146000000
H    -5.643000000    -3.044000000     0.052000000
