158
-3012.86908
C    -0.779000000     0.172000000     1.242000000
H    -1.515000000     0.094000000     2.038000000
C    -0.211000000    -1.030000000     0.785000000
H    -0.461000000    -1.979000000     1.253000000
C     0.529000000    -1.043000000    -0.354000000
H     0.844000000    -2.045000000    -0.711000000
C     0.721000000     0.131000000    -1.055000000
H     1.255000000     0.150000000    -2.002000000
C     0.189000000     1.350000000    -0.565000000
H     0.379000000     2.304000000    -1.050000000
C    -0.612000000     1.365000000     0.567000000
C    -1.241000000     2.671000000     1.069000000
O    -2.062000000     2.616000000     1.900000000
O    -1.042000000     3.710000000     0.508000000
O    -4.129000000     0.864000000     3.146000000
H    -3.289000000     1.301000000     3.007000000
H    -4.170000000     0.719000000     4.091000000
O    -3.787000000     4.838000000     1.392000000
H    -4.629000000     4.388000000     1.458000000
H    -3.136000000     4.141000000     1.474000000
O    -4.046000000    -0.030000000     5.826000000
H    -3.591000000    -0.858000000     5.672000000
H    -4.735000000    -0.249000000     6.455000000
O     1.824000000     0.057000000     5.039000000
H     2.666000000     0.001000000     5.493000000
H     1.930000000     0.785000000     4.427000000
O     3.107000000     2.983000000    -4.834000000
H     2.670000000     2.943000000    -5.685000000
H     2.846000000     3.829000000    -4.471000000
O    -2.732000000    -2.783000000    -4.048000000
H    -2.572000000    -1.878000000    -3.781000000
H    -2.200000000    -3.308000000    -3.450000000
O     1.717000000     5.795000000    -1.529000000
H     0.988000000     6.385000000    -1.339000000
H     1.951000000     5.423000000    -0.679000000
O     1.292000000     5.051000000    -4.243000000
H     1.350000000     5.280000000    -3.315000000
H     0.411000000     5.323000000    -4.502000000
O     4.203000000    -1.422000000    -4.667000000
H     4.174000000    -0.697000000    -5.292000000
H     3.321000000    -1.793000000    -4.691000000
O    -4.467000000     5.182000000     4.138000000
H    -4.210000000     5.306000000     5.052000000
H    -3.736000000     4.704000000     3.746000000
O     1.395000000     3.493000000     3.379000000
H     1.468000000     2.610000000     3.015000000
H     1.857000000     3.446000000     4.216000000
O    -0.198000000     7.522000000    -1.192000000
H    -0.617000000     7.532000000    -0.332000000
H    -0.396000000     8.381000000    -1.565000000
O    -0.079000000    -5.596000000    -4.459000000
H    -0.358000000    -5.117000000    -3.679000000
H     0.875000000    -5.639000000    -4.384000000
O    -0.768000000     6.290000000     1.390000000
H    -0.807000000     6.314000000     2.346000000
H    -0.683000000     5.360000000     1.178000000
O     2.512000000    -5.668000000     3.626000000
H     3.424000000    -5.379000000     3.602000000
H     2.107000000    -5.246000000     2.869000000
O    -1.360000000    -4.302000000    -2.184000000
H    -0.429000000    -4.352000000    -1.966000000
H    -1.801000000    -4.729000000    -1.449000000
O    -4.305000000     5.367000000    -1.524000000
H    -3.374000000     5.151000000    -1.575000000
H    -4.606000000     4.939000000    -0.723000000
O     1.939000000     6.065000000     3.365000000
H     2.308000000     6.195000000     2.491000000
H     1.655000000     5.151000000     3.372000000
O     1.807000000     0.928000000     2.497000000
H     1.073000000     0.571000000     1.998000000
H     2.553000000     0.381000000     2.249000000
O     3.689000000     2.408000000    -1.935000000
H     3.738000000     1.452000000    -1.898000000
H     3.472000000     2.601000000    -2.847000000
O     0.431000000    -3.846000000     4.728000000
H     1.091000000    -4.480000000     4.446000000
H     0.317000000    -4.020000000     5.662000000
O     4.898000000     0.011000000    -2.501000000
H     4.535000000    -0.379000000    -3.297000000
H     5.182000000    -0.737000000    -1.976000000
O    -0.588000000     6.472000000     4.269000000
H     0.333000000     6.400000000     4.020000000
H    -0.911000000     5.571000000     4.259000000
O    -2.362000000    -1.434000000    -1.019000000
H    -2.705000000    -1.746000000    -0.182000000
H    -1.487000000    -1.106000000    -0.811000000
O    -3.311000000    -2.491000000     1.233000000
H    -2.944000000    -2.210000000     2.072000000
H    -4.235000000    -2.655000000     1.419000000
O     1.894000000    -2.802000000    -5.015000000
H     2.067000000    -3.408000000    -5.734000000
H     0.974000000    -2.947000000    -4.795000000
O    -3.951000000     1.725000000     0.022000000
H    -3.313000000     1.870000000     0.720000000
H    -4.696000000     2.278000000     0.259000000
O     5.393000000    -5.937000000     0.867000000
H     5.923000000    -5.190000000     0.591000000
H     4.753000000    -6.049000000     0.163000000
O    -3.357000000    -3.953000000     4.968000000
H    -2.689000000    -3.657000000     4.350000000
H    -4.056000000    -3.303000000     4.895000000
O     3.916000000    -3.704000000    -1.798000000
H     4.290000000    -4.118000000    -2.575000000
H     4.649000000    -3.234000000    -1.401000000
O     4.054000000    -0.393000000     2.031000000
H     4.982000000    -0.387000000     2.266000000
H     3.949000000    -1.176000000     1.491000000
O     1.211000000    -4.435000000    -1.783000000
H     2.121000000    -4.166000000    -1.910000000
H     1.196000000    -4.822000000    -0.907000000
O    -1.941000000     0.019000000    -4.856000000
H    -1.493000000     0.712000000    -5.341000000
H    -1.723000000     0.189000000    -3.939000000
O    -1.388000000     4.745000000    -4.058000000
H    -1.386000000     4.624000000    -3.108000000
H    -2.313000000     4.840000000    -4.285000000
O    -6.607000000    -0.251000000     2.588000000
H    -6.464000000    -0.740000000     1.777000000
H    -5.734000000     0.043000000     2.848000000
O    -2.269000000    -5.011000000     1.092000000
H    -2.233000000    -4.102000000     1.388000000
H    -2.048000000    -5.525000000     1.868000000
O    -0.691000000     2.555000000    -5.453000000
H    -1.245000000     3.093000000    -4.888000000
H     0.174000000     2.962000000    -5.398000000
O    -1.824000000     5.063000000    -1.432000000
H    -1.642000000     5.991000000    -1.285000000
H    -1.553000000     4.634000000    -0.620000000
O     2.637000000     3.824000000     0.342000000
H     2.825000000     3.200000000    -0.359000000
H     1.848000000     3.481000000     0.762000000
O     1.640000000    -2.748000000     2.615000000
H     1.160000000    -2.933000000     3.421000000
H     1.817000000    -1.808000000     2.652000000
O    -3.448000000     7.473000000     1.832000000
H    -2.495000000     7.386000000     1.794000000
H    -3.776000000     6.590000000     1.658000000
O     0.034000000    -7.746000000    -0.371000000
H    -0.281000000    -7.531000000    -1.249000000
H     0.339000000    -8.651000000    -0.440000000
O    -1.012000000    -0.214000000     4.871000000
H    -0.060000000    -0.118000000     4.843000000
H    -1.284000000     0.311000000     5.623000000
O    -1.681000000    -2.462000000     3.520000000
H    -0.987000000    -3.094000000     3.708000000
H    -1.457000000    -1.695000000     4.047000000
O     1.780000000    -5.579000000     1.032000000
H     2.054000000    -6.138000000     0.304000000
H     0.856000000    -5.791000000     1.162000000
O     3.909000000    -2.989000000     1.024000000
H     3.139000000    -2.966000000     1.593000000
H     3.668000000    -3.588000000     0.318000000
O    -3.622000000     0.501000000    -2.354000000
H    -3.484000000     1.127000000    -1.643000000
H    -3.239000000    -0.315000000    -2.032000000
O    -1.959000000     3.989000000     4.308000000
H    -1.798000000     3.357000000     5.009000000
H    -1.885000000     3.478000000     3.502000000
