158
-3007.03102
C    -1.195000000     0.146000000     0.873000000
H    -2.074000000     0.106000000     1.511000000
C    -0.409000000    -0.993000000     0.712000000
H    -0.668000000    -1.936000000     1.187000000
C     0.652000000    -1.001000000    -0.187000000
H     1.280000000    -1.880000000    -0.425000000
C     0.986000000     0.151000000    -0.857000000
H     1.845000000    -0.006000000    -1.504000000
C     0.342000000     1.334000000    -0.616000000
H     0.709000000     2.233000000    -1.106000000
C    -0.715000000     1.320000000     0.275000000
C    -1.507000000     2.615000000     0.583000000
O    -1.990000000     2.769000000     1.693000000
O    -1.648000000     3.504000000    -0.258000000
O    -2.044000000     0.919000000     5.095000000
H    -2.507000000     1.486000000     4.478000000
H    -1.302000000     1.445000000     5.393000000
O    -4.487000000     2.381000000     2.488000000
H    -3.631000000     2.597000000     2.120000000
H    -5.042000000     3.126000000     2.257000000
O    -2.016000000     6.142000000     0.572000000
H    -2.544000000     6.503000000    -0.140000000
H    -1.871000000     5.229000000     0.323000000
O     3.613000000     2.302000000    -2.228000000
H     3.462000000     3.039000000    -1.636000000
H     3.844000000     1.574000000    -1.651000000
O    -1.401000000     8.998000000    -0.266000000
H    -0.545000000     9.283000000    -0.584000000
H    -1.300000000     8.058000000    -0.115000000
O     3.644000000    -2.264000000    -3.856000000
H     2.822000000    -1.792000000    -3.716000000
H     3.375000000    -3.113000000    -4.209000000
O     6.036000000    -3.508000000    -1.123000000
H     6.727000000    -3.661000000    -0.479000000
H     5.633000000    -4.367000000    -1.251000000
O     2.023000000     5.877000000    -0.835000000
H     1.410000000     5.377000000    -1.374000000
H     2.582000000     5.214000000    -0.430000000
O     1.246000000     2.293000000    -3.699000000
H     1.958000000     2.178000000    -3.069000000
H     1.285000000     3.219000000    -3.938000000
O     1.363000000     1.151000000     2.473000000
H     2.001000000     0.455000000     2.322000000
H     0.790000000     1.122000000     1.706000000
O    -6.171000000     1.358000000     4.543000000
H    -5.641000000     1.652000000     3.801000000
H    -7.068000000     1.591000000     4.304000000
O     0.644000000     2.416000000     4.999000000
H     0.789000000     2.090000000     4.111000000
H     0.958000000     1.713000000     5.567000000
O     3.658000000    -5.098000000    -4.678000000
H     3.236000000    -5.807000000    -5.163000000
H     3.992000000    -5.517000000    -3.885000000
O    -2.138000000     7.295000000     3.215000000
H    -2.776000000     7.976000000     3.003000000
H    -1.947000000     6.876000000     2.376000000
O     3.811000000    -4.455000000     1.219000000
H     3.053000000    -4.080000000     1.668000000
H     3.444000000    -5.140000000     0.661000000
O    -3.335000000     6.336000000    -2.857000000
H    -3.788000000     5.715000000    -2.287000000
H    -3.790000000     6.266000000    -3.697000000
O    -1.337000000    -5.971000000    -0.938000000
H    -0.798000000    -5.623000000    -0.228000000
H    -2.192000000    -6.124000000    -0.536000000
O    -2.433000000    -6.615000000    -3.481000000
H    -2.046000000    -6.296000000    -2.665000000
H    -1.932000000    -7.403000000    -3.690000000
O    -6.211000000     3.053000000    -2.929000000
H    -5.528000000     3.105000000    -2.261000000
H    -6.636000000     2.210000000    -2.773000000
O     4.142000000     2.570000000     2.391000000
H     4.660000000     2.046000000     3.002000000
H     3.487000000     1.962000000     2.049000000
O     5.131000000    -0.627000000    -1.982000000
H     5.896000000    -1.089000000    -1.641000000
H     4.806000000    -1.189000000    -2.686000000
O    -0.058000000     6.512000000    -3.905000000
H    -0.736000000     6.359000000    -4.563000000
H    -0.422000000     6.149000000    -3.097000000
O     5.279000000    -2.317000000     1.895000000
H     6.132000000    -2.646000000     2.179000000
H     4.726000000    -3.096000000     1.846000000
O    -5.243000000    -0.030000000     1.254000000
H    -4.888000000     0.254000000     0.411000000
H    -5.111000000     0.720000000     1.834000000
O     0.169000000    -4.786000000    -3.083000000
H     0.940000000    -5.302000000    -3.321000000
H    -0.333000000    -5.359000000    -2.503000000
O    -4.007000000     4.259000000    -1.165000000
H    -4.581000000     3.821000000    -0.536000000
H    -3.123000000     4.021000000    -0.887000000
O     0.003000000    -4.962000000     1.176000000
H     0.587000000    -4.981000000     0.418000000
H     0.115000000    -5.820000000     1.586000000
O    -2.099000000     4.196000000    -4.450000000
H    -1.541000000     4.484000000    -5.172000000
H    -2.801000000     4.846000000    -4.416000000
O     3.851000000     0.699000000     0.217000000
H     4.203000000     0.173000000    -0.501000000
H     3.619000000     0.060000000     0.890000000
O     1.547000000    -3.022000000     2.382000000
H     0.887000000    -3.589000000     1.984000000
H     1.166000000    -2.762000000     3.221000000
O    -1.663000000    -1.550000000    -2.396000000
H    -1.732000000    -0.969000000    -1.638000000
H    -1.829000000    -2.424000000    -2.044000000
O    -3.734000000     0.111000000    -1.402000000
H    -4.357000000    -0.070000000    -2.106000000
H    -3.222000000     0.854000000    -1.721000000
O    -2.808000000     1.868000000    -3.374000000
H    -3.358000000     1.792000000    -4.153000000
H    -2.411000000     2.736000000    -3.445000000
O     0.117000000    -2.195000000     4.786000000
H    -0.469000000    -2.640000000     5.399000000
H     0.152000000    -1.292000000     5.101000000
O     2.871000000     4.531000000    -4.144000000
H     3.725000000     4.145000000    -4.338000000
H     3.066000000     5.257000000    -3.551000000
O    -0.609000000     0.717000000    -4.955000000
H    -1.407000000     0.951000000    -4.481000000
H     0.079000000     1.230000000    -4.533000000
O     3.776000000     4.077000000     0.047000000
H     3.424000000     3.486000000     0.714000000
H     4.455000000     4.574000000     0.503000000
O     0.440000000    -2.239000000    -4.159000000
H     0.102000000    -1.529000000    -3.614000000
H     0.196000000    -3.037000000    -3.690000000
O     0.024000000     4.581000000    -1.931000000
H    -0.233000000     3.951000000    -2.605000000
H    -0.596000000     4.433000000    -1.217000000
O    -5.216000000     5.545000000     2.756000000
H    -4.298000000     5.502000000     3.025000000
H    -5.302000000     6.401000000     2.336000000
O     6.163000000     1.604000000    -4.037000000
H     6.766000000     0.868000000    -3.935000000
H     5.640000000     1.598000000    -3.234000000
O     3.432000000    -3.871000000     4.576000000
H     3.400000000    -3.236000000     3.861000000
H     2.786000000    -3.554000000     5.207000000
O    -2.995000000     4.286000000     6.712000000
H    -2.729000000     4.568000000     5.836000000
H    -3.949000000     4.369000000     6.710000000
O     2.370000000    -5.847000000    -0.310000000
H     1.796000000    -6.602000000    -0.180000000
H     2.543000000    -5.837000000    -1.252000000
O     0.930000000    -2.990000000    -6.817000000
H     0.358000000    -2.311000000    -7.177000000
H     0.879000000    -2.868000000    -5.869000000
O     2.999000000    -0.819000000     2.328000000
H     3.855000000    -1.239000000     2.244000000
H     2.377000000    -1.547000000     2.351000000
O    -4.514000000    -2.130000000    -0.284000000
H    -4.678000000    -1.851000000     0.617000000
H    -4.152000000    -1.354000000    -0.712000000
O    -2.219000000     4.407000000     3.855000000
H    -1.872000000     3.914000000     3.111000000
H    -1.687000000     5.202000000     3.883000000
