158
-3011.65444
C    -0.473000000     0.609000000    -1.249000000
H    -0.760000000     0.975000000    -2.232000000
C    -0.415000000    -0.762000000    -0.982000000
H    -0.839000000    -1.466000000    -1.694000000
C     0.024000000    -1.219000000     0.281000000
H    -0.054000000    -2.252000000     0.432000000
C     0.340000000    -0.302000000     1.231000000
H     0.664000000    -0.617000000     2.220000000
C     0.330000000     1.038000000     0.920000000
H     0.756000000     1.703000000     1.667000000
C    -0.033000000     1.542000000    -0.364000000
C     0.027000000     3.035000000    -0.699000000
O     0.072000000     3.472000000    -1.835000000
O     0.284000000     3.760000000     0.263000000
O    -2.991000000     2.197000000    -2.262000000
H    -3.177000000     1.790000000    -1.415000000
H    -3.258000000     3.110000000    -2.152000000
O     1.402000000    -5.597000000     1.947000000
H     2.174000000    -6.147000000     2.079000000
H     1.726000000    -4.701000000     2.046000000
O    -3.499000000     5.503000000    -1.604000000
H    -4.128000000     5.554000000    -0.884000000
H    -2.646000000     5.616000000    -1.185000000
O     2.575000000     7.104000000    -2.564000000
H     1.715000000     6.715000000    -2.400000000
H     3.024000000     6.466000000    -3.118000000
O    -1.511000000     0.241000000     4.074000000
H    -1.474000000     1.197000000     4.069000000
H    -2.424000000     0.035000000     3.873000000
O    -3.784000000    -2.320000000    -0.895000000
H    -3.538000000    -1.638000000    -0.271000000
H    -3.041000000    -2.923000000    -0.897000000
O    -2.747000000     5.014000000     2.171000000
H    -2.472000000     5.810000000     1.716000000
H    -2.007000000     4.414000000     2.071000000
O     3.783000000     0.645000000     0.825000000
H     3.723000000     0.414000000    -0.102000000
H     3.705000000     1.599000000     0.840000000
O    -2.766000000     0.728000000     0.844000000
H    -1.882000000     0.651000000     0.485000000
H    -2.748000000     0.195000000     1.639000000
O    -5.382000000     0.350000000     0.271000000
H    -5.842000000     0.381000000     1.110000000
H    -4.473000000     0.556000000     0.488000000
O    -1.353000000     5.981000000    -0.054000000
H    -0.914000000     6.653000000     0.467000000
H    -0.736000000     5.250000000    -0.072000000
O    -0.885000000     3.274000000     4.133000000
H    -0.330000000     3.999000000     3.848000000
H    -0.948000000     3.379000000     5.082000000
O     1.367000000    -5.668000000     4.763000000
H     1.204000000    -5.847000000     3.837000000
H     1.249000000    -6.514000000     5.195000000
O    -1.468000000    -1.702000000    -6.458000000
H    -1.825000000    -2.564000000    -6.244000000
H    -0.919000000    -1.476000000    -5.707000000
O     3.459000000     2.282000000     5.111000000
H     3.462000000     2.420000000     6.058000000
H     2.648000000     1.803000000     4.942000000
O     2.857000000    -1.250000000    -0.977000000
H     2.248000000    -1.013000000    -1.677000000
H     2.415000000    -0.977000000    -0.173000000
O     1.351000000     0.493000000     5.035000000
H     0.880000000    -0.277000000     4.715000000
H     0.704000000     0.973000000     5.550000000
O     4.662000000    -3.011000000    -0.095000000
H     4.511000000    -3.221000000     0.827000000
H     4.079000000    -2.272000000    -0.271000000
O     1.233000000     4.719000000     5.221000000
H     1.722000000     4.966000000     4.436000000
H     0.715000000     5.495000000     5.434000000
O    -0.501000000    -7.439000000     0.572000000
H    -0.004000000    -7.121000000     1.327000000
H    -0.988000000    -8.192000000     0.907000000
O     1.363000000    -4.021000000    -4.516000000
H     2.065000000    -3.929000000    -3.872000000
H     0.772000000    -4.671000000    -4.134000000
O     3.103000000     4.625000000     2.863000000
H     3.951000000     4.223000000     2.674000000
H     2.777000000     4.908000000     2.009000000
O     1.612000000    -5.451000000    -1.272000000
H     1.290000000    -5.585000000    -0.381000000
H     1.309000000    -6.221000000    -1.755000000
O    -2.764000000    -6.858000000    -0.794000000
H    -2.966000000    -7.406000000    -1.552000000
H    -1.926000000    -7.192000000    -0.474000000
O    -1.332000000     4.340000000    -6.505000000
H    -1.989000000     4.707000000    -5.913000000
H    -1.036000000     3.541000000    -6.069000000
O    -2.161000000    -3.845000000     5.816000000
H    -2.907000000    -3.252000000     5.723000000
H    -2.487000000    -4.691000000     5.508000000
O     3.152000000    -0.427000000     3.127000000
H     2.914000000     0.323000000     3.672000000
H     3.413000000    -0.042000000     2.290000000
O     2.253000000    -3.254000000     5.765000000
H     2.049000000    -3.908000000     5.096000000
H     1.407000000    -2.866000000     5.987000000
O    -2.090000000    -4.272000000    -0.076000000
H    -2.262000000    -5.140000000    -0.442000000
H    -1.994000000    -4.423000000     0.864000000
O     2.691000000    -0.453000000    -3.865000000
H     3.285000000     0.091000000    -3.348000000
H     3.257000000    -1.114000000    -4.264000000
O     0.159000000     8.034000000    -4.850000000
H    -0.101000000     7.441000000    -4.145000000
H     1.088000000     8.200000000    -4.693000000
O    -4.692000000    -4.340000000     1.925000000
H    -4.081000000    -3.669000000     1.620000000
H    -4.315000000    -4.651000000     2.748000000
O     2.161000000     3.575000000    -6.252000000
H     2.311000000     3.343000000    -5.335000000
H     1.661000000     4.390000000    -6.213000000
O     3.332000000    -3.690000000    -2.664000000
H     3.469000000    -2.914000000    -2.121000000
H     3.027000000    -4.360000000    -2.052000000
O    -2.127000000     1.628000000    -4.766000000
H    -2.334000000     1.883000000    -3.867000000
H    -1.492000000     0.918000000    -4.673000000
O     0.023000000    -1.924000000     6.206000000
H     0.048000000    -1.325000000     6.953000000
H    -0.893000000    -2.194000000     6.146000000
O    -3.086000000    -1.712000000     2.383000000
H    -3.369000000    -1.855000000     3.287000000
H    -2.152000000    -1.923000000     2.389000000
O     0.236000000    -1.539000000    -4.458000000
H     0.652000000    -2.398000000    -4.388000000
H     0.965000000    -0.928000000    -4.562000000
O    -2.880000000    -3.982000000    -4.333000000
H    -3.639000000    -3.504000000    -3.998000000
H    -2.273000000    -4.016000000    -3.593000000
O     2.189000000     3.306000000    -3.683000000
H     1.344000000     3.473000000    -3.264000000
H     2.633000000     2.698000000    -3.092000000
O    -4.881000000     0.253000000    -4.479000000
H    -4.147000000     0.800000000    -4.758000000
H    -5.417000000     0.152000000    -5.265000000
O     1.689000000     5.986000000     0.814000000
H     1.975000000     6.511000000     0.067000000
H     1.279000000     5.215000000     0.422000000
O    -3.398000000     5.621000000    -4.350000000
H    -3.185000000     5.661000000    -3.418000000
H    -3.978000000     6.368000000    -4.496000000
O    -0.008000000     5.902000000    -2.464000000
H    -0.951000000     6.053000000    -2.397000000
H     0.123000000     5.036000000    -2.078000000
O    -0.586000000     7.286000000     2.362000000
H     0.252000000     7.086000000     1.945000000
H    -0.398000000     7.260000000     3.300000000
O     2.415000000    -3.068000000     2.514000000
H     2.381000000    -2.115000000     2.437000000
H     3.292000000    -3.251000000     2.850000000
O    -0.857000000    -3.237000000     2.855000000
H    -1.061000000    -3.300000000     3.788000000
H     0.090000000    -3.365000000     2.808000000
O    -4.880000000    -2.325000000    -3.616000000
H    -4.512000000    -2.215000000    -2.739000000
H    -5.008000000    -1.431000000    -3.935000000
