158
-3041.35718
C    -0.829000000     0.478000000    -1.156000000
H    -1.387000000     0.770000000    -2.042000000
C    -0.906000000    -0.839000000    -0.658000000
H    -1.437000000    -1.657000000    -1.140000000
C    -0.061000000    -1.169000000     0.403000000
H    -0.152000000    -2.226000000     0.744000000
C     0.846000000    -0.266000000     0.913000000
H     1.465000000    -0.682000000     1.704000000
C     0.978000000     1.057000000     0.408000000
H     1.467000000     1.838000000     0.984000000
C     0.070000000     1.440000000    -0.583000000
C    -0.074000000     2.925000000    -1.022000000
O    -0.476000000     3.169000000    -2.131000000
O     0.255000000     3.871000000    -0.271000000
O    -2.324000000     2.819000000     2.875000000
H    -1.375000000     2.923000000     2.937000000
H    -2.448000000     2.158000000     2.194000000
O     3.113000000     2.208000000    -3.940000000
H     3.348000000     2.014000000    -4.847000000
H     3.860000000     2.700000000    -3.599000000
O    -0.176000000     9.039000000    -0.516000000
H     0.057000000     8.111000000    -0.549000000
H     0.034000000     9.306000000     0.379000000
O     0.157000000     1.065000000     5.173000000
H     0.218000000     0.905000000     6.115000000
H    -0.774000000     1.224000000     5.017000000
O    -0.968000000    -7.333000000     1.596000000
H    -1.893000000    -7.307000000     1.837000000
H    -0.758000000    -6.433000000     1.350000000
O    -3.296000000    -1.226000000    -3.877000000
H    -3.344000000    -0.425000000    -3.355000000
H    -3.482000000    -1.929000000    -3.255000000
O     0.585000000     4.201000000     2.491000000
H     0.520000000     4.221000000     1.536000000
H     1.477000000     3.900000000     2.664000000
O     2.989000000     4.697000000    -0.204000000
H     2.821000000     5.274000000    -0.949000000
H     2.136000000     4.309000000    -0.006000000
O    -2.522000000     0.112000000     1.767000000
H    -2.268000000    -0.153000000     2.651000000
H    -1.711000000     0.068000000     1.261000000
O    -4.659000000    -1.412000000     2.542000000
H    -4.918000000    -0.884000000     3.297000000
H    -4.043000000    -0.858000000     2.063000000
O     0.518000000     6.368000000    -0.419000000
H     0.984000000     6.376000000    -1.255000000
H     0.206000000     5.468000000    -0.327000000
O    -1.865000000    -4.910000000    -3.266000000
H    -1.209000000    -4.589000000    -3.884000000
H    -1.370000000    -5.448000000    -2.649000000
O    -2.304000000     5.553000000     1.090000000
H    -2.699000000     4.797000000     1.525000000
H    -1.410000000     5.275000000     0.891000000
O     1.332000000     4.902000000    -6.554000000
H     0.945000000     4.133000000    -6.972000000
H     1.496000000     4.628000000    -5.652000000
O    -2.519000000    -5.980000000     4.948000000
H    -2.639000000    -5.121000000     4.542000000
H    -1.574000000    -6.049000000     5.086000000
O     0.749000000    -3.127000000    -2.459000000
H    -0.006000000    -2.645000000    -2.797000000
H     1.507000000    -2.640000000    -2.782000000
O     4.394000000    -0.281000000    -1.205000000
H     5.009000000     0.085000000    -1.841000000
H     3.682000000    -0.636000000    -1.737000000
O     2.630000000    -0.166000000     3.953000000
H     2.930000000     0.742000000     3.992000000
H     1.692000000    -0.117000000     4.138000000
O     3.875000000     1.877000000     0.576000000
H     3.837000000     0.996000000     0.205000000
H     4.428000000     2.369000000    -0.031000000
O     3.730000000    -2.708000000     0.818000000
H     3.087000000    -3.370000000     0.566000000
H     3.941000000    -2.256000000     0.001000000
O    -5.577000000    -3.081000000     0.570000000
H    -6.388000000    -3.510000000     0.844000000
H    -5.296000000    -2.586000000     1.340000000
O     2.897000000    -5.190000000     2.250000000
H     2.394000000    -5.135000000     1.438000000
H     3.419000000    -5.987000000     2.155000000
O    -1.139000000     7.755000000    -4.069000000
H    -1.251000000     7.064000000    -3.417000000
H    -1.882000000     7.646000000    -4.664000000
O    -0.436000000    -6.043000000    -1.130000000
H     0.509000000    -6.180000000    -1.197000000
H    -0.553000000    -5.584000000    -0.298000000
O    -0.750000000    -2.359000000    -4.592000000
H    -1.317000000    -1.599000000    -4.727000000
H    -0.317000000    -2.488000000    -5.436000000
O     2.175000000    -6.726000000    -1.544000000
H     1.976000000    -7.531000000    -2.022000000
H     3.107000000    -6.794000000    -1.338000000
O    -1.548000000     5.496000000    -2.615000000
H    -2.029000000     5.804000000    -1.847000000
H    -1.258000000     4.615000000    -2.378000000
O     3.799000000     2.242000000     3.323000000
H     4.735000000     2.259000000     3.522000000
H     3.758000000     2.146000000     2.372000000
O    -1.111000000    -4.626000000     1.174000000
H    -0.412000000    -4.127000000     1.597000000
H    -1.914000000    -4.163000000     1.412000000
O    -4.446000000     0.158000000    -5.852000000
H    -3.735000000     0.016000000    -5.228000000
H    -4.393000000    -0.587000000    -6.451000000
O     0.981000000     0.206000000    -4.118000000
H     1.328000000     0.849000000    -3.500000000
H     1.437000000    -0.607000000    -3.899000000
O    -2.766000000    -3.534000000     3.687000000
H    -3.551000000    -3.156000000     3.289000000
H    -2.157000000    -2.799000000     3.758000000
O     3.542000000     5.656000000     2.377000000
H     3.809000000     6.556000000     2.187000000
H     3.406000000     5.259000000     1.517000000
O     1.988000000     6.149000000    -2.568000000
H     2.559000000     6.621000000    -3.174000000
H     1.849000000     5.298000000    -2.982000000
O     1.876000000    -4.302000000    -0.214000000
H     1.940000000    -5.153000000    -0.647000000
H     1.421000000    -3.746000000    -0.846000000
O     4.881000000    -0.606000000     2.009000000
H     4.488000000    -1.311000000     1.494000000
H     4.138000000    -0.172000000     2.428000000
O    -1.059000000     5.048000000     4.525000000
H    -0.604000000     4.814000000     3.716000000
H    -0.852000000     5.974000000     4.657000000
O    -1.423000000     0.958000000    -5.390000000
H    -1.729000000     1.693000000    -4.859000000
H    -0.630000000     0.656000000    -4.948000000
O    -1.240000000    -1.535000000     3.838000000
H    -1.001000000    -1.293000000     4.733000000
H    -0.474000000    -2.000000000     3.503000000
O    -1.702000000     3.628000000    -4.875000000
H    -0.879000000     3.958000000    -5.236000000
H    -1.892000000     4.212000000    -4.141000000
O     0.610000000     7.816000000     2.007000000
H     0.644000000     7.366000000     1.163000000
H     0.285000000     7.154000000     2.618000000
O    -3.495000000     1.738000000    -3.058000000
H    -4.012000000     2.178000000    -3.733000000
H    -2.858000000     2.396000000    -2.778000000
O     1.024000000     3.928000000    -4.047000000
H     0.397000000     3.686000000    -3.366000000
H     1.551000000     3.141000000    -4.178000000
O     0.161000000    -5.832000000     4.534000000
H     0.542000000    -5.643000000     5.392000000
H     0.888000000    -6.186000000     4.022000000
O     0.499000000    -3.456000000     2.892000000
H     1.410000000    -3.740000000     2.814000000
H     0.142000000    -3.986000000     3.605000000
O     4.179000000    -3.381000000     3.754000000
H     4.026000000    -3.997000000     3.038000000
H     3.637000000    -2.622000000     3.537000000
O    -3.608000000    -3.071000000    -1.949000000
H    -3.932000000    -3.146000000    -1.052000000
H    -2.944000000    -3.757000000    -2.022000000
O    -4.777000000     1.894000000    -0.323000000
H    -5.038000000     1.937000000    -1.243000000
H    -4.068000000     1.252000000    -0.305000000
