158
-3020.71781
C    -1.341000000     0.575000000     0.427000000
H    -2.277000000     0.926000000     0.856000000
C    -0.908000000    -0.728000000     0.683000000
H    -1.546000000    -1.270000000     1.376000000
C     0.388000000    -1.131000000     0.280000000
H     0.686000000    -2.149000000     0.612000000
C     1.181000000    -0.311000000    -0.531000000
H     2.217000000    -0.476000000    -0.816000000
C     0.700000000     0.913000000    -0.809000000
H     1.378000000     1.613000000    -1.289000000
C    -0.586000000     1.371000000    -0.432000000
C    -1.001000000     2.824000000    -0.750000000
O    -2.201000000     3.127000000    -0.773000000
O    -0.157000000     3.618000000    -1.172000000
O    -4.953000000     1.710000000     4.519000000
H    -5.651000000     2.353000000     4.644000000
H    -5.347000000     1.033000000     3.970000000
O    -2.348000000     4.987000000     1.211000000
H    -1.713000000     5.520000000     0.733000000
H    -2.299000000     4.126000000     0.797000000
O     1.298000000    -0.910000000    -3.667000000
H     0.850000000    -0.801000000    -2.828000000
H     0.764000000    -1.545000000    -4.144000000
O    -1.100000000     6.993000000    -0.309000000
H    -0.339000000     6.721000000    -0.821000000
H    -0.789000000     7.737000000     0.206000000
O     2.979000000     5.242000000     0.553000000
H     3.824000000     5.041000000     0.957000000
H     2.529000000     5.786000000     1.199000000
O    -3.688000000     7.637000000    -1.335000000
H    -3.768000000     7.281000000    -2.220000000
H    -2.905000000     7.218000000    -0.977000000
O    -3.578000000    -3.302000000    -2.434000000
H    -3.035000000    -4.090000000    -2.457000000
H    -3.843000000    -3.221000000    -1.518000000
O     1.106000000     5.903000000    -1.587000000
H     0.768000000     5.010000000    -1.521000000
H     1.991000000     5.852000000    -1.225000000
O     4.508000000     1.345000000    -2.863000000
H     4.679000000     0.532000000    -2.388000000
H     4.433000000     2.010000000    -2.179000000
O     0.001000000     1.140000000     3.075000000
H    -0.709000000     1.012000000     2.446000000
H     0.651000000     1.656000000     2.599000000
O    -2.389000000    -0.742000000     4.110000000
H    -2.770000000    -1.091000000     4.916000000
H    -3.030000000    -0.102000000     3.799000000
O    -3.537000000     4.438000000    -2.536000000
H    -3.628000000     3.735000000    -3.179000000
H    -3.021000000     4.050000000    -1.829000000
O    -3.751000000     5.942000000     3.521000000
H    -4.279000000     6.691000000     3.245000000
H    -3.285000000     5.672000000     2.730000000
O    -2.245000000     2.594000000     5.162000000
H    -3.056000000     3.099000000     5.209000000
H    -2.529000000     1.703000000     4.960000000
O     5.616000000    -3.751000000     3.368000000
H     4.835000000    -4.043000000     3.838000000
H     5.789000000    -4.448000000     2.735000000
O    -4.624000000     2.422000000    -4.136000000
H    -4.366000000     1.519000000    -3.952000000
H    -5.292000000     2.346000000    -4.817000000
O     2.930000000    -3.906000000     0.591000000
H     2.589000000    -4.018000000    -0.296000000
H     3.450000000    -4.694000000     0.749000000
O    -0.192000000    -4.544000000     4.681000000
H     0.149000000    -5.333000000     5.101000000
H     0.358000000    -4.427000000     3.906000000
O     3.936000000    -3.172000000    -4.362000000
H     4.439000000    -2.652000000    -3.736000000
H     3.132000000    -2.671000000    -4.498000000
O    -4.415000000    -3.446000000     0.144000000
H    -4.998000000    -2.726000000    -0.096000000
H    -3.962000000    -3.136000000     0.929000000
O     1.997000000     7.681000000    -3.314000000
H     2.768000000     8.108000000    -2.939000000
H     1.639000000     7.160000000    -2.596000000
O    -0.148000000    -5.187000000     0.171000000
H     0.258000000    -4.948000000    -0.662000000
H    -1.045000000    -5.428000000    -0.061000000
O    -4.467000000     1.820000000    -1.054000000
H    -4.861000000     2.094000000    -0.226000000
H    -3.630000000     2.283000000    -1.086000000
O     0.694000000    -4.076000000     2.289000000
H     1.496000000    -3.648000000     1.991000000
H     0.368000000    -4.538000000     1.517000000
O    -5.645000000     5.450000000    -0.831000000
H    -4.813000000     5.915000000    -0.922000000
H    -5.412000000     4.525000000    -0.905000000
O     5.116000000    -2.132000000     1.280000000
H     4.364000000    -2.697000000     1.102000000
H     5.517000000    -2.508000000     2.064000000
O     0.364000000    -0.822000000     4.917000000
H     0.207000000    -0.174000000     4.231000000
H    -0.442000000    -1.337000000     4.950000000
O    -3.163000000    -3.004000000     2.590000000
H    -3.096000000    -3.834000000     3.063000000
H    -2.629000000    -2.395000000     3.099000000
O    -6.376000000     0.341000000    -2.520000000
H    -6.522000000    -0.367000000    -1.893000000
H    -5.828000000     0.969000000    -2.049000000
O    -1.731000000     0.079000000    -5.128000000
H    -1.389000000     0.957000000    -4.959000000
H    -1.677000000    -0.366000000    -4.282000000
O     2.995000000    -1.145000000     5.842000000
H     2.070000000    -0.903000000     5.879000000
H     3.341000000    -0.653000000     5.097000000
O     5.966000000    -0.813000000    -0.836000000
H     5.581000000    -1.098000000    -0.008000000
H     5.850000000    -1.559000000    -1.424000000
O    -0.396000000     2.235000000    -3.918000000
H     0.520000000     2.164000000    -4.184000000
H    -0.359000000     2.515000000    -3.003000000
O     2.169000000     1.588000000    -4.085000000
H     1.852000000     0.713000000    -3.860000000
H     3.007000000     1.664000000    -3.628000000
O     1.853000000     2.684000000     1.871000000
H     1.746000000     3.395000000     1.239000000
H     2.706000000     2.303000000     1.661000000
O    -0.470000000    -2.871000000    -4.441000000
H    -0.650000000    -2.281000000    -3.709000000
H    -0.873000000    -3.700000000    -4.185000000
O    -1.770000000    -1.317000000    -2.592000000
H    -1.492000000    -1.508000000    -1.696000000
H    -2.500000000    -1.915000000    -2.750000000
O     4.217000000     2.639000000    -0.051000000
H     4.110000000     3.580000000    -0.193000000
H     5.113000000     2.546000000     0.273000000
O    -5.348000000     3.437000000     1.078000000
H    -4.661000000     3.322000000     1.734000000
H    -5.426000000     4.385000000     0.974000000
O    -0.778000000     5.012000000    -4.565000000
H    -1.037000000     5.160000000    -3.656000000
H    -0.564000000     4.080000000    -4.605000000
O     3.146000000    -4.021000000     4.682000000
H     2.686000000    -3.223000000     4.423000000
H     2.540000000    -4.729000000     4.463000000
O    -2.021000000    -6.220000000     3.324000000
H    -2.133000000    -6.006000000     4.250000000
H    -1.161000000    -5.866000000     3.098000000
O     0.164000000    -7.769000000     1.030000000
H     0.165000000    -6.842000000     0.794000000
H     0.402000000    -8.223000000     0.221000000
O     4.644000000    -5.766000000     1.551000000
H     5.008000000    -6.310000000     0.852000000
H     4.711000000    -6.308000000     2.336000000
O     1.916000000    -5.037000000    -1.736000000
H     1.972000000    -5.932000000    -1.402000000
H     1.694000000    -5.139000000    -2.661000000
O     3.259000000    -0.513000000     3.024000000
H     4.106000000    -0.792000000     2.675000000
H     2.639000000    -0.690000000     2.316000000
O    -2.786000000    -5.597000000    -0.478000000
H    -3.582000000    -5.078000000    -0.362000000
H    -2.924000000    -6.372000000     0.067000000
O    -3.266000000     2.614000000     2.593000000
H    -2.631000000     3.304000000     2.785000000
H    -3.711000000     2.461000000     3.426000000
