158
-3032.86497
C    -1.436000000     0.046000000    -0.341000000
H    -2.480000000     0.045000000    -0.645000000
C    -0.757000000    -1.077000000     0.078000000
H    -1.337000000    -1.996000000     0.123000000
C     0.571000000    -0.968000000     0.455000000
H     1.039000000    -1.932000000     0.823000000
C     1.303000000     0.242000000     0.341000000
H     2.334000000     0.276000000     0.685000000
C     0.644000000     1.291000000    -0.273000000
H     1.216000000     2.210000000    -0.374000000
C    -0.718000000     1.261000000    -0.524000000
C    -1.401000000     2.396000000    -1.229000000
O    -2.133000000     2.232000000    -2.157000000
O    -1.327000000     3.509000000    -0.843000000
O    -7.558000000    -0.187000000     1.062000000
H    -6.869000000     0.291000000     0.600000000
H    -7.119000000    -0.962000000     1.411000000
O    -2.003000000     6.088000000    -0.440000000
H    -1.186000000     6.540000000    -0.228000000
H    -1.724000000     5.254000000    -0.817000000
O     6.076000000    -1.413000000    -2.191000000
H     6.534000000    -1.817000000    -2.928000000
H     5.949000000    -2.128000000    -1.567000000
O     1.040000000    -0.416000000    -2.870000000
H     0.215000000    -0.152000000    -3.278000000
H     1.066000000     0.071000000    -2.047000000
O     1.969000000     6.241000000    -0.031000000
H     2.326000000     7.042000000    -0.416000000
H     1.920000000     6.427000000     0.906000000
O    -2.130000000     6.953000000    -4.482000000
H    -2.417000000     6.046000000    -4.374000000
H    -1.331000000     7.015000000    -3.959000000
O    -0.253000000    -2.281000000     6.423000000
H    -0.729000000    -2.455000000     5.611000000
H    -0.513000000    -1.393000000     6.668000000
O    -3.163000000    -1.459000000    -4.507000000
H    -2.399000000    -0.928000000    -4.731000000
H    -2.877000000    -1.988000000    -3.762000000
O     0.453000000     5.259000000    -2.010000000
H    -0.156000000     4.670000000    -1.564000000
H     0.971000000     5.647000000    -1.305000000
O     3.404000000     2.385000000    -2.773000000
H     3.981000000     1.744000000    -2.359000000
H     3.794000000     3.232000000    -2.558000000
O    -0.650000000     0.549000000     2.702000000
H    -0.869000000     1.466000000     2.534000000
H    -0.470000000     0.184000000     1.836000000
O    -3.182000000    -0.542000000     3.971000000
H    -2.446000000     0.069000000     3.938000000
H    -3.955000000     0.009000000     3.847000000
O    -5.502000000     0.201000000    -1.396000000
H    -4.728000000    -0.354000000    -1.297000000
H    -6.229000000    -0.415000000    -1.481000000
O    -2.800000000     4.113000000    -4.149000000
H    -3.587000000     3.765000000    -4.569000000
H    -2.615000000     3.496000000    -3.440000000
O    -0.902000000     3.235000000     2.121000000
H    -1.705000000     3.716000000     2.322000000
H    -0.772000000     3.370000000     1.182000000
O     5.863000000    -2.087000000     3.834000000
H     5.095000000    -2.276000000     4.373000000
H     6.142000000    -2.942000000     3.506000000
O    -3.477000000     1.676000000    -5.911000000
H    -4.287000000     1.229000000    -5.666000000
H    -3.302000000     1.381000000    -6.805000000
O     1.501000000    -4.266000000     5.997000000
H     0.909000000    -3.525000000     6.123000000
H     1.052000000    -4.828000000     5.366000000
O     3.767000000    -1.846000000     0.701000000
H     3.341000000    -1.549000000    -0.103000000
H     4.503000000    -2.378000000     0.399000000
O    -0.846000000    -2.354000000     3.714000000
H    -1.269000000    -3.120000000     3.328000000
H    -1.099000000    -1.627000000     3.145000000
O     2.797000000    -2.627000000    -1.956000000
H     3.498000000    -2.738000000    -2.598000000
H     2.322000000    -1.850000000    -2.252000000
O    -4.546000000    -2.750000000    -0.758000000
H    -5.256000000    -3.387000000    -0.837000000
H    -4.222000000    -2.863000000     0.135000000
O     1.918000000    -5.227000000    -1.418000000
H     1.975000000    -4.272000000    -1.381000000
H     2.045000000    -5.438000000    -2.343000000
O    -4.854000000     2.723000000    -2.039000000
H    -5.216000000     1.860000000    -1.836000000
H    -3.910000000     2.579000000    -2.101000000
O     2.936000000    -3.757000000     2.567000000
H     2.946000000    -2.999000000     1.984000000
H     2.706000000    -4.493000000     1.999000000
O     4.568000000     0.629000000     1.911000000
H     4.269000000    -0.239000000     1.642000000
H     5.370000000     0.463000000     2.407000000
O     1.240000000    -0.376000000     4.652000000
H     0.580000000     0.131000000     4.178000000
H     0.893000000    -1.268000000     4.665000000
O    -4.054000000    -2.441000000     2.344000000
H    -3.538000000    -3.206000000     2.599000000
H    -3.783000000    -1.755000000     2.954000000
O    -5.583000000    -0.148000000    -4.774000000
H    -4.917000000    -0.709000000    -4.378000000
H    -6.210000000     0.015000000    -4.068000000
O    -7.019000000     3.981000000    -3.235000000
H    -6.346000000     4.577000000    -3.563000000
H    -6.530000000     3.276000000    -2.812000000
O     4.216000000     3.437000000     1.527000000
H     4.409000000     2.523000000     1.316000000
H     3.504000000     3.391000000     2.165000000
O     5.024000000     0.838000000    -1.338000000
H     5.291000000     1.037000000    -0.440000000
H     5.514000000     0.047000000    -1.563000000
O     1.608000000     3.787000000    -3.952000000
H     2.241000000     3.167000000    -3.589000000
H     1.193000000     4.182000000    -3.185000000
O    -0.182000000    -3.580000000    -4.069000000
H    -0.737000000    -3.402000000    -3.310000000
H    -0.005000000    -4.519000000    -4.022000000
O     5.716000000    -3.284000000    -0.219000000
H     5.408000000    -4.186000000    -0.132000000
H     6.541000000    -3.266000000     0.266000000
O    -1.149000000     1.030000000    -4.214000000
H    -1.304000000     1.468000000    -3.377000000
H    -1.778000000     1.432000000    -4.814000000
O     4.251000000     4.648000000    -1.237000000
H     3.450000000     5.046000000    -0.895000000
H     4.573000000     4.104000000    -0.519000000
O    -2.031000000     6.781000000     2.615000000
H    -2.570000000     6.493000000     1.878000000
H    -2.621000000     7.313000000     3.150000000
O    -4.427000000     4.767000000    -0.120000000
H    -4.675000000     4.222000000    -0.867000000
H    -3.529000000     5.039000000    -0.309000000
O     0.545000000     2.589000000    -6.265000000
H     0.615000000     3.019000000    -5.413000000
H    -0.227000000     2.027000000    -6.187000000
O     3.942000000    -3.607000000     5.113000000
H     3.174000000    -3.919000000     5.593000000
H     3.761000000    -3.830000000     4.200000000
O     5.030000000    -5.888000000     0.658000000
H     4.085000000    -5.842000000     0.800000000
H     5.176000000    -6.764000000     0.300000000
O    -2.101000000    -4.622000000     3.117000000
H    -2.168000000    -4.758000000     4.062000000
H    -1.681000000    -5.417000000     2.789000000
O    -0.606000000    -6.728000000     1.897000000
H     0.008000000    -7.460000000     1.849000000
H    -0.461000000    -6.240000000     1.086000000
O     2.493000000    -5.933000000     1.252000000
H     1.958000000    -6.726000000     1.274000000
H     2.356000000    -5.576000000     0.375000000
O     3.750000000     0.814000000     4.606000000
H     3.922000000     0.929000000     3.672000000
H     2.870000000     0.438000000     4.643000000
O    -2.547000000    -3.415000000    -2.520000000
H    -3.421000000    -3.206000000    -2.189000000
H    -2.529000000    -4.371000000    -2.561000000
O    -3.701000000     3.618000000     2.496000000
H    -3.847000000     3.809000000     1.569000000
H    -4.437000000     3.059000000     2.744000000
