158
-3034.06441
C    -0.601000000     1.049000000    -0.759000000
H    -1.206000000     1.694000000    -1.392000000
C    -0.637000000    -0.301000000    -1.111000000
H    -1.200000000    -0.651000000    -1.973000000
C     0.032000000    -1.176000000    -0.317000000
H     0.168000000    -2.243000000    -0.564000000
C     0.543000000    -0.726000000     0.889000000
H     1.036000000    -1.381000000     1.603000000
C     0.643000000     0.619000000     1.209000000
H     1.087000000     1.027000000     2.114000000
C     0.015000000     1.525000000     0.354000000
C    -0.095000000     3.001000000     0.708000000
O    -0.704000000     3.692000000     0.031000000
O     0.651000000     3.426000000     1.537000000
O     2.771000000     1.207000000     4.042000000
H     2.270000000     2.021000000     3.987000000
H     2.108000000     0.517000000     4.037000000
O     1.442000000     3.798000000    -1.722000000
H     0.753000000     3.909000000    -1.068000000
H     2.032000000     3.148000000    -1.341000000
O    -3.185000000     5.493000000    -2.067000000
H    -4.102000000     5.484000000    -2.341000000
H    -3.113000000     4.766000000    -1.449000000
O     0.783000000    -4.346000000     1.971000000
H     0.550000000    -4.171000000     2.883000000
H    -0.051000000    -4.548000000     1.546000000
O     2.240000000    -2.521000000    -2.352000000
H     2.469000000    -2.579000000    -1.425000000
H     2.651000000    -1.709000000    -2.649000000
O     0.996000000     4.162000000     6.548000000
H     0.457000000     3.374000000     6.618000000
H     1.213000000     4.222000000     5.618000000
O    -2.691000000    -1.521000000     1.402000000
H    -2.129000000    -1.206000000     0.694000000
H    -2.321000000    -1.130000000     2.194000000
O    -2.365000000     0.405000000     3.688000000
H    -1.924000000     1.255000000     3.707000000
H    -2.381000000     0.124000000     4.603000000
O    -3.412000000     3.810000000     0.586000000
H    -2.507000000     3.546000000     0.419000000
H    -3.890000000     2.985000000     0.668000000
O     1.514000000     0.683000000    -3.030000000
H     2.357000000     1.004000000    -2.710000000
H     0.967000000     0.626000000    -2.247000000
O     4.355000000     5.505000000     3.640000000
H     4.062000000     5.397000000     2.736000000
H     5.217000000     5.915000000     3.566000000
O     3.515000000     0.565000000    -0.785000000
H     3.879000000     1.201000000    -0.170000000
H     2.840000000     0.106000000    -0.284000000
O    -4.515000000     1.258000000     0.193000000
H    -4.517000000     0.356000000     0.515000000
H    -4.594000000     1.173000000    -0.757000000
O     2.628000000     7.995000000     3.455000000
H     1.709000000     7.890000000     3.703000000
H     2.945000000     7.102000000     3.325000000
O    -1.281000000     5.312000000     2.238000000
H    -0.727000000     4.859000000     1.602000000
H    -2.171000000     5.196000000     1.905000000
O    -4.155000000     0.732000000    -2.549000000
H    -4.553000000    -0.081000000    -2.860000000
H    -3.327000000     0.790000000    -3.025000000
O     5.125000000     2.465000000     4.856000000
H     4.299000000     2.148000000     4.490000000
H     4.947000000     3.375000000     5.094000000
O    -4.502000000    -3.014000000    -0.403000000
H    -3.762000000    -2.410000000    -0.336000000
H    -4.203000000    -3.693000000    -1.007000000
O     4.703000000    -0.970000000     3.770000000
H     4.010000000    -0.331000000     3.605000000
H     5.410000000    -0.715000000     3.177000000
O     2.195000000     5.602000000     1.736000000
H     2.035000000     6.252000000     1.052000000
H     1.618000000     4.872000000     1.513000000
O    -1.109000000     2.782000000     4.073000000
H    -1.575000000     3.591000000     4.285000000
H    -0.388000000     3.062000000     3.508000000
O    -2.808000000    -6.756000000     1.495000000
H    -2.457000000    -5.889000000     1.294000000
H    -2.215000000    -7.363000000     1.052000000
O     0.227000000    -4.215000000    -2.838000000
H     0.796000000    -3.472000000    -2.636000000
H     0.324000000    -4.341000000    -3.782000000
O     1.359000000     7.119000000    -0.180000000
H     1.483000000     8.041000000     0.048000000
H     0.456000000     7.070000000    -0.494000000
O    -4.195000000     6.408000000     1.085000000
H    -4.126000000     7.034000000     0.365000000
H    -4.005000000     5.560000000     0.684000000
O     1.458000000    -6.359000000    -1.567000000
H     0.834000000    -5.925000000    -2.149000000
H     1.876000000    -5.643000000    -1.088000000
O     2.706000000    -3.007000000     0.274000000
H     2.079000000    -3.567000000     0.732000000
H     3.295000000    -2.696000000     0.961000000
O    -2.749000000     1.889000000    -4.604000000
H    -3.466000000     2.191000000    -5.162000000
H    -1.977000000     2.347000000    -4.937000000
O    -0.750000000    -3.212000000     4.387000000
H    -1.410000000    -3.571000000     3.793000000
H    -0.646000000    -3.881000000     5.063000000
O     4.814000000    -4.843000000    -0.833000000
H     4.290000000    -4.043000000    -0.798000000
H     5.286000000    -4.857000000     0.000000000
O     5.234000000     4.570000000     0.410000000
H     6.106000000     4.680000000     0.789000000
H     4.943000000     3.714000000     0.722000000
O    -0.266000000     1.842000000     6.556000000
H    -0.882000000     1.821000000     7.288000000
H    -0.821000000     1.858000000     5.776000000
O    -0.203000000    -7.553000000     0.429000000
H    -0.234000000    -8.131000000    -0.333000000
H     0.297000000    -6.792000000     0.132000000
O    -5.281000000    -3.925000000     2.178000000
H    -5.015000000    -3.866000000     1.260000000
H    -6.223000000    -4.092000000     2.145000000
O     0.872000000    -4.298000000    -5.799000000
H     1.785000000    -4.575000000    -5.879000000
H     0.923000000    -3.368000000    -5.578000000
O     0.452000000    -0.384000000    -5.279000000
H     0.799000000    -0.139000000    -4.421000000
H     0.146000000     0.440000000    -5.657000000
O    -5.916000000     2.596000000    -3.104000000
H    -5.095000000     2.106000000    -3.149000000
H    -6.506000000     2.028000000    -2.609000000
O     2.162000000    -1.964000000    -6.435000000
H     1.581000000    -1.329000000    -6.018000000
H     2.365000000    -1.580000000    -7.288000000
O     1.944000000     3.914000000    -4.363000000
H     1.667000000     3.676000000    -3.478000000
H     2.792000000     4.341000000    -4.243000000
O    -1.759000000    -4.485000000     0.406000000
H    -1.980000000    -4.406000000    -0.522000000
H    -1.844000000    -3.596000000     0.750000000
O    -1.402000000     8.014000000     1.274000000
H    -1.329000000     7.833000000     0.337000000
H    -1.285000000     7.161000000     1.693000000
O     1.994000000     3.746000000     3.825000000
H     2.252000000     4.668000000     3.844000000
H     1.466000000     3.662000000     3.031000000
O    -1.074000000     7.530000000    -1.268000000
H    -1.690000000     6.848000000    -1.536000000
H    -1.046000000     8.133000000    -2.011000000
O     3.183000000    -6.318000000     2.662000000
H     2.330000000    -6.015000000     2.973000000
H     3.327000000    -7.144000000     3.124000000
O    -2.346000000    -3.939000000    -2.139000000
H    -1.409000000    -3.873000000    -2.323000000
H    -2.674000000    -4.561000000    -2.788000000
O     1.162000000    -0.777000000     4.615000000
H     0.218000000    -0.885000000     4.501000000
H     1.362000000    -1.259000000     5.418000000
O    -0.121000000     7.128000000     3.785000000
H    -0.575000000     6.841000000     4.577000000
H    -0.501000000     6.597000000     3.085000000
O     4.799000000     1.958000000     1.342000000
H     5.633000000     1.731000000     1.753000000
H     4.158000000     1.897000000     2.051000000
