158
-3018.33021
C    -0.205000000     1.051000000    -0.988000000
H    -0.161000000     1.865000000    -1.707000000
C     0.823000000     0.166000000    -1.070000000
H     1.576000000     0.131000000    -1.853000000
C     0.918000000    -0.811000000    -0.055000000
H     1.697000000    -1.514000000    -0.135000000
C    -0.033000000    -0.873000000     0.925000000
H    -0.007000000    -1.729000000     1.594000000
C    -1.087000000     0.043000000     0.984000000
H    -1.781000000    -0.038000000     1.817000000
C    -1.182000000     1.051000000     0.010000000
C    -2.287000000     2.123000000    -0.031000000
O    -2.557000000     2.626000000    -1.105000000
O    -2.876000000     2.476000000     0.978000000
O     1.494000000     2.637000000     1.998000000
H     2.128000000     2.953000000     2.642000000
H     1.920000000     1.882000000     1.594000000
O     7.316000000     0.502000000    -1.325000000
H     6.761000000     0.767000000    -0.591000000
H     7.525000000    -0.415000000    -1.149000000
O    -0.812000000    -0.274000000     4.354000000
H    -1.567000000     0.309000000     4.271000000
H    -1.085000000    -1.083000000     3.921000000
O    -2.040000000     3.917000000    -3.396000000
H    -2.180000000     3.213000000    -2.762000000
H    -1.245000000     3.664000000    -3.864000000
O     1.897000000    -6.477000000     2.370000000
H     2.360000000    -7.263000000     2.658000000
H     2.591000000    -5.885000000     2.077000000
O     1.814000000     3.578000000    -1.858000000
H     2.228000000     4.428000000    -2.010000000
H     1.467000000     3.637000000    -0.967000000
O    -1.574000000    -1.049000000    -2.939000000
H    -1.142000000    -0.777000000    -2.129000000
H    -1.201000000    -1.908000000    -3.133000000
O    -5.476000000     2.716000000    -3.553000000
H    -5.360000000     3.102000000    -2.684000000
H    -4.594000000     2.453000000    -3.817000000
O    -3.481000000     1.103000000     4.221000000
H    -4.227000000     0.529000000     4.393000000
H    -3.843000000     1.988000000     4.272000000
O    -2.277000000     5.610000000     4.400000000
H    -1.749000000     6.344000000     4.084000000
H    -2.072000000     4.892000000     3.801000000
O    -4.941000000     3.516000000    -1.019000000
H    -4.032000000     3.321000000    -1.248000000
H    -4.886000000     3.947000000    -0.166000000
O    -1.998000000     5.550000000    -0.772000000
H    -1.653000000     5.499000000    -1.664000000
H    -2.321000000     4.668000000    -0.589000000
O    -4.872000000    -3.465000000     0.304000000
H    -5.561000000    -3.870000000    -0.222000000
H    -5.013000000    -2.524000000     0.200000000
O    -4.711000000     0.511000000     1.807000000
H    -4.257000000     0.482000000     2.650000000
H    -4.224000000     1.157000000     1.296000000
O    -6.491000000    -0.205000000    -1.780000000
H    -6.812000000    -1.057000000    -2.077000000
H    -5.601000000    -0.150000000    -2.127000000
O     0.334000000     5.623000000     1.328000000
H     0.623000000     4.725000000     1.489000000
H    -0.234000000     5.557000000     0.560000000
O     5.303000000     2.350000000    -0.200000000
H     4.659000000     1.796000000     0.241000000
H     4.986000000     2.416000000    -1.101000000
O    -6.609000000     2.614000000     1.603000000
H    -6.935000000     2.412000000     0.726000000
H    -6.451000000     1.759000000     2.002000000
O     4.677000000    -5.296000000     0.667000000
H     4.565000000    -6.171000000     1.036000000
H     3.870000000    -5.138000000     0.177000000
O    -0.881000000    -3.562000000    -3.647000000
H    -0.478000000    -4.309000000    -3.204000000
H    -0.922000000    -3.822000000    -4.567000000
O    -1.069000000    -5.922000000     2.813000000
H    -1.353000000    -6.510000000     2.114000000
H    -0.113000000    -5.948000000     2.774000000
O     0.293000000    -5.884000000    -2.890000000
H     0.449000000    -6.828000000    -2.860000000
H     0.055000000    -5.652000000    -1.992000000
O     6.800000000    -3.905000000     2.357000000
H     5.994000000    -3.468000000     2.081000000
H     7.277000000    -4.065000000     1.543000000
O     4.334000000    -1.438000000    -1.530000000
H     3.830000000    -2.095000000    -2.010000000
H     4.735000000    -1.925000000    -0.809000000
O     1.724000000    -3.458000000     3.214000000
H     2.047000000    -3.697000000     4.083000000
H     0.826000000    -3.162000000     3.365000000
O     0.579000000     3.230000000    -4.312000000
H     0.844000000     2.336000000    -4.527000000
H     1.007000000     3.413000000    -3.476000000
O     3.515000000    -6.135000000    -2.523000000
H     3.039000000    -6.679000000    -1.895000000
H     3.389000000    -6.574000000    -3.364000000
O     1.538000000     0.564000000    -4.585000000
H     1.861000000     0.600000000    -5.486000000
H     1.876000000    -0.264000000    -4.243000000
O     3.224000000    -3.383000000    -3.126000000
H     3.465000000    -3.103000000    -4.008000000
H     3.399000000    -4.324000000    -3.117000000
O     7.122000000    -0.222000000     2.159000000
H     7.156000000    -1.156000000     2.366000000
H     6.342000000     0.096000000     2.614000000
O     4.562000000     1.597000000    -3.008000000
H     4.727000000     0.681000000    -2.783000000
H     3.739000000     1.578000000    -3.497000000
O    -4.925000000     3.377000000     4.496000000
H    -5.853000000     3.410000000     4.265000000
H    -4.519000000     4.057000000     3.958000000
O     3.623000000    -1.192000000    -5.131000000
H     3.568000000    -1.836000000    -5.837000000
H     4.552000000    -0.971000000    -5.081000000
O    -0.384000000    -5.049000000    -0.322000000
H    -0.067000000    -5.249000000     0.558000000
H    -1.332000000    -4.960000000    -0.221000000
O    -1.155000000    -0.380000000    -5.841000000
H    -0.264000000    -0.043000000    -5.739000000
H    -1.357000000    -0.782000000    -4.996000000
O    -4.096000000    -0.405000000    -2.864000000
H    -4.255000000    -0.598000000    -3.788000000
H    -3.148000000    -0.489000000    -2.762000000
O    -3.595000000     5.211000000    -5.158000000
H    -2.957000000     5.028000000    -4.468000000
H    -3.635000000     4.402000000    -5.667000000
O     2.368000000    -4.035000000    -0.483000000
H     1.458000000    -4.328000000    -0.434000000
H     2.409000000    -3.515000000    -1.285000000
O    -3.932000000     6.782000000     2.432000000
H    -4.260000000     5.934000000     2.133000000
H    -3.452000000     6.582000000     3.236000000
O    -1.301000000     3.536000000     2.799000000
H    -0.526000000     2.993000000     2.652000000
H    -2.007000000     3.073000000     2.347000000
O    -5.622000000    -0.557000000     4.572000000
H    -6.466000000    -0.852000000     4.914000000
H    -5.244000000    -1.336000000     4.163000000
O     3.716000000    -1.800000000     1.896000000
H     3.582000000    -2.256000000     1.065000000
H     3.259000000    -2.339000000     2.542000000
O    -6.978000000    -0.567000000     0.921000000
H    -6.844000000    -0.344000000     0.000000000
H    -6.104000000    -0.514000000     1.309000000
O    -1.207000000    -3.231000000     3.834000000
H    -1.166000000    -3.644000000     4.697000000
H    -1.815000000    -3.777000000     3.336000000
O     1.960000000    -0.015000000     4.812000000
H     1.938000000    -0.807000000     5.349000000
H     1.100000000     0.013000000     4.392000000
O     3.539000000     0.759000000     1.039000000
H     3.062000000     0.417000000     0.284000000
H     3.642000000     0.005000000     1.620000000
O    -1.749000000    -1.032000000     6.761000000
H    -1.771000000    -1.987000000     6.821000000
H    -1.161000000    -0.850000000     6.029000000
O    -4.581000000     4.230000000     1.765000000
H    -5.269000000     3.564000000     1.760000000
H    -3.793000000     3.761000000     1.489000000
