158
-3022.99991
C    -0.059000000     1.213000000    -0.722000000
H    -0.002000000     2.057000000    -1.404000000
C    -0.058000000    -0.027000000    -1.298000000
H    -0.356000000     0.083000000    -2.338000000
C     0.137000000    -1.156000000    -0.495000000
H     0.021000000    -2.126000000    -0.877000000
C     0.155000000    -1.002000000     0.877000000
H     0.184000000    -1.874000000     1.525000000
C     0.074000000     0.248000000     1.462000000
H     0.060000000     0.311000000     2.547000000
C     0.103000000     1.425000000     0.669000000
C     0.123000000     2.823000000     1.284000000
O     0.318000000     3.820000000     0.608000000
O    -0.273000000     3.007000000     2.457000000
O     3.472000000    -0.626000000     2.806000000
H     3.053000000     0.009000000     3.387000000
H     2.853000000    -1.354000000     2.760000000
O     2.488000000     4.188000000    -0.735000000
H     1.758000000     4.388000000    -0.150000000
H     2.843000000     3.363000000    -0.403000000
O    -0.035000000    -4.124000000     2.553000000
H    -0.319000000    -4.883000000     3.061000000
H    -0.800000000    -3.548000000     2.535000000
O    -3.069000000    -0.174000000    -1.877000000
H    -2.787000000    -0.098000000    -2.789000000
H    -2.656000000     0.568000000    -1.436000000
O     4.429000000     6.423000000    -0.729000000
H     3.815000000     5.783000000    -1.091000000
H     5.232000000     6.297000000    -1.234000000
O    -2.695000000    -0.266000000     5.878000000
H    -3.022000000    -0.314000000     6.776000000
H    -2.797000000     0.654000000     5.634000000
O    -2.099000000     4.456000000    -0.761000000
H    -1.156000000     4.366000000    -0.624000000
H    -2.480000000     3.699000000    -0.314000000
O     0.682000000     0.416000000     6.687000000
H     0.319000000     0.963000000     5.990000000
H     0.472000000    -0.479000000     6.424000000
O     3.604000000    -0.520000000    -3.454000000
H     3.778000000     0.420000000    -3.490000000
H     4.215000000    -0.852000000    -2.796000000
O     2.941000000    -2.556000000     0.019000000
H     3.742000000    -2.073000000     0.223000000
H     2.233000000    -1.952000000     0.241000000
O    -3.146000000     1.868000000     0.104000000
H    -3.897000000     2.292000000     0.519000000
H    -2.755000000     1.340000000     0.801000000
O     1.829000000     6.839000000     4.472000000
H     1.259000000     6.111000000     4.722000000
H     2.033000000     6.678000000     3.551000000
O     2.862000000     3.838000000     6.387000000
H     3.442000000     4.589000000     6.260000000
H     2.176000000     3.951000000     5.729000000
O    -4.411000000     3.540000000     1.899000000
H    -5.131000000     3.062000000     2.309000000
H    -4.636000000     4.463000000     2.021000000
O    -2.034000000     4.900000000     2.728000000
H    -1.397000000     4.214000000     2.525000000
H    -2.874000000     4.537000000     2.446000000
O    -4.992000000    -0.971000000     1.250000000
H    -4.669000000    -1.151000000     2.133000000
H    -4.233000000    -0.621000000     0.784000000
O    -1.739000000     5.531000000     5.377000000
H    -2.548000000     5.885000000     5.746000000
H    -1.933000000     5.407000000     4.448000000
O    -3.694000000    -3.093000000    -1.479000000
H    -3.435000000    -2.181000000    -1.610000000
H    -2.922000000    -3.599000000    -1.730000000
O     4.475000000    -5.157000000     2.007000000
H     4.512000000    -5.653000000     2.825000000
H     3.546000000    -5.151000000     1.773000000
O     1.578000000     6.484000000     1.686000000
H     1.169000000     7.120000000     1.099000000
H     1.022000000     5.708000000     1.623000000
O    -0.719000000     1.525000000     4.677000000
H    -1.597000000     1.842000000     4.890000000
H    -0.486000000     1.989000000     3.873000000
O     3.578000000    -3.751000000    -2.348000000
H     3.275000000    -3.456000000    -1.489000000
H     4.280000000    -3.142000000    -2.577000000
O    -0.759000000    -3.088000000    -5.389000000
H    -1.410000000    -3.132000000    -6.089000000
H    -0.111000000    -2.457000000    -5.704000000
O     0.186000000     7.758000000    -0.121000000
H     0.523000000     8.578000000    -0.482000000
H    -0.406000000     7.425000000    -0.795000000
O     2.295000000    -7.278000000    -0.459000000
H     2.274000000    -6.414000000    -0.048000000
H     3.204000000    -7.391000000    -0.735000000
O     1.778000000    -4.917000000     0.691000000
H     2.224000000    -4.188000000     0.260000000
H     0.998000000    -4.523000000     1.082000000
O    -1.455000000    -2.697000000     5.051000000
H    -1.521000000    -1.743000000     5.062000000
H    -2.161000000    -2.979000000     4.468000000
O     0.367000000     2.329000000    -5.685000000
H     1.149000000     2.323000000    -5.132000000
H     0.360000000     1.465000000    -6.097000000
O    -5.302000000    -4.755000000    -3.235000000
H    -5.995000000    -4.105000000    -3.348000000
H    -4.675000000    -4.337000000    -2.645000000
O     3.869000000     1.924000000    -0.034000000
H     4.578000000     2.185000000    -0.622000000
H     3.997000000     0.984000000     0.093000000
O    -2.722000000    -5.135000000    -4.831000000
H    -3.061000000    -5.408000000    -3.979000000
H    -1.955000000    -4.601000000    -4.625000000
O    -1.045000000     5.178000000    -4.412000000
H    -1.805000000     5.074000000    -3.840000000
H    -1.230000000     4.614000000    -5.163000000
O    -1.740000000     1.470000000    -4.142000000
H    -1.000000000     1.970000000    -4.486000000
H    -2.449000000     2.110000000    -4.071000000
O    -0.496000000    -7.623000000    -0.423000000
H    -0.737000000    -7.977000000    -1.279000000
H     0.352000000    -7.203000000    -0.567000000
O    -4.458000000    -4.529000000     1.042000000
H    -4.190000000    -5.234000000     0.453000000
H    -4.562000000    -3.767000000     0.473000000
O     2.131000000    -2.588000000    -4.303000000
H     2.498000000    -3.274000000    -3.745000000
H     2.517000000    -1.778000000    -3.972000000
O     0.565000000    -0.450000000    -4.967000000
H     0.869000000    -1.079000000    -4.313000000
H    -0.108000000     0.059000000    -4.516000000
O     2.040000000    -3.100000000    -7.011000000
H     2.127000000    -2.907000000    -6.078000000
H     2.256000000    -2.277000000    -7.448000000
O     1.600000000     4.440000000    -3.269000000
H     0.673000000     4.210000000    -3.208000000
H     1.955000000     4.235000000    -2.405000000
O    -1.436000000    -4.759000000    -1.789000000
H    -0.657000000    -4.859000000    -2.335000000
H    -1.423000000    -5.522000000    -1.211000000
O    -1.187000000     7.783000000     2.572000000
H    -0.635000000     7.764000000     1.790000000
H    -1.472000000     6.876000000     2.686000000
O    -3.586000000     3.340000000    -3.815000000
H    -3.514000000     4.078000000    -3.210000000
H    -4.518000000     3.294000000    -4.028000000
O     2.800000000     1.276000000     5.137000000
H     1.951000000     0.932000000     5.415000000
H     2.749000000     2.215000000     5.315000000
O     0.438000000    -5.120000000    -3.710000000
H     1.003000000    -5.768000000    -4.131000000
H     0.145000000    -4.556000000    -4.426000000
O    -3.450000000     2.408000000     5.115000000
H    -4.226000000     2.319000000     4.562000000
H    -3.603000000     3.208000000     5.617000000
O    -2.998000000    -3.578000000     3.214000000
H    -3.640000000    -3.824000000     2.548000000
H    -2.574000000    -4.402000000     3.454000000
O     1.795000000    -2.198000000     4.649000000
H     2.414000000    -2.516000000     5.307000000
H     1.471000000    -2.991000000     4.222000000
O     0.581000000     4.224000000     4.679000000
H    -0.263000000     4.538000000     5.004000000
H     0.358000000     3.671000000     3.930000000
