158
-3045.84539
C    -0.116000000     1.419000000    -0.487000000
H    -0.217000000     2.380000000    -0.985000000
C     0.572000000     0.397000000    -1.117000000
H     1.015000000     0.544000000    -2.098000000
C     0.510000000    -0.883000000    -0.625000000
H     0.811000000    -1.789000000    -1.191000000
C    -0.055000000    -1.142000000     0.607000000
H    -0.033000000    -2.159000000     0.990000000
C    -0.597000000    -0.082000000     1.326000000
H    -0.953000000    -0.183000000     2.348000000
C    -0.681000000     1.191000000     0.754000000
C    -1.374000000     2.317000000     1.429000000
O    -1.748000000     3.265000000     0.825000000
O    -1.564000000     2.254000000     2.624000000
O     2.289000000     2.930000000     3.439000000
H     1.757000000     2.148000000     3.295000000
H     3.151000000     2.701000000     3.091000000
O     6.513000000    -0.828000000     0.226000000
H     5.855000000    -0.815000000     0.921000000
H     7.323000000    -1.084000000     0.667000000
O     0.878000000    -1.879000000     3.772000000
H     1.726000000    -1.643000000     4.148000000
H     0.425000000    -1.044000000     3.659000000
O    -0.832000000     5.683000000    -0.002000000
H    -1.080000000     4.831000000     0.357000000
H     0.111000000     5.743000000     0.152000000
O    -5.060000000     5.722000000    -0.781000000
H    -4.864000000     4.838000000    -1.090000000
H    -4.201000000     6.120000000    -0.634000000
O     0.023000000    -3.095000000     5.851000000
H    -0.782000000    -3.562000000     5.629000000
H     0.381000000    -2.821000000     5.006000000
O     3.268000000     2.257000000    -6.243000000
H     3.520000000     1.871000000    -5.404000000
H     4.097000000     2.514000000    -6.647000000
O     2.550000000     2.901000000    -2.871000000
H     2.737000000     3.796000000    -2.589000000
H     2.626000000     2.377000000    -2.073000000
O    -2.754000000    -1.187000000    -0.837000000
H    -1.872000000    -1.025000000    -1.172000000
H    -2.616000000    -1.521000000     0.050000000
O    -3.599000000     2.997000000    -0.940000000
H    -2.859000000     3.022000000    -0.334000000
H    -3.198000000     2.886000000    -1.803000000
O    -2.459000000    -0.124000000     5.161000000
H    -3.204000000     0.266000000     4.703000000
H    -1.692000000     0.290000000     4.764000000
O     0.739000000    -6.482000000     0.078000000
H     1.261000000    -6.613000000     0.870000000
H    -0.028000000    -5.992000000     0.375000000
O     1.342000000     5.794000000     4.837000000
H     1.841000000     6.261000000     4.166000000
H     0.768000000     5.208000000     4.344000000
O    -4.815000000     1.448000000     0.944000000
H    -4.475000000     1.951000000     0.204000000
H    -5.251000000     2.099000000     1.495000000
O    -3.704000000     4.750000000     1.859000000
H    -2.997000000     4.260000000     1.440000000
H    -4.502000000     4.422000000     1.444000000
O    -3.780000000    -3.051000000     1.430000000
H    -3.519000000    -3.201000000     2.338000000
H    -4.728000000    -2.925000000     1.470000000
O    -1.518000000     5.701000000     5.480000000
H    -1.642000000     6.624000000     5.255000000
H    -1.288000000     5.282000000     4.651000000
O    -0.560000000     4.652000000     3.215000000
H     0.105000000     4.531000000     2.536000000
H    -1.234000000     4.005000000     3.007000000
O     3.783000000     1.931000000    -0.329000000
H     4.077000000     2.820000000    -0.129000000
H     3.986000000     1.429000000     0.461000000
O    -5.353000000    -0.194000000     3.628000000
H    -5.601000000    -1.048000000     3.274000000
H    -5.159000000     0.339000000     2.857000000
O     4.308000000    -6.394000000    -1.553000000
H     3.449000000    -6.690000000    -1.853000000
H     4.203000000    -5.453000000    -1.416000000
O     7.009000000    -3.499000000    -2.182000000
H     7.234000000    -2.594000000    -2.396000000
H     6.061000000    -3.546000000    -2.306000000
O     0.089000000     7.708000000     1.860000000
H    -0.474000000     6.934000000     1.843000000
H    -0.084000000     8.148000000     1.027000000
O    -1.804000000    -5.505000000     3.308000000
H    -2.169000000    -5.513000000     2.423000000
H    -2.219000000    -4.755000000     3.733000000
O     3.355000000    -5.088000000    -4.362000000
H     3.864000000    -4.351000000    -4.700000000
H     4.006000000    -5.661000000    -3.956000000
O     0.152000000     2.219000000    -4.361000000
H     0.461000000     1.717000000    -3.607000000
H     0.725000000     2.985000000    -4.389000000
O     0.783000000    -4.121000000    -3.952000000
H     0.112000000    -4.791000000    -4.085000000
H     1.600000000    -4.545000000    -4.211000000
O     1.916000000    -1.673000000    -5.422000000
H     1.253000000    -1.259000000    -5.974000000
H     1.420000000    -2.264000000    -4.855000000
O     4.441000000    -2.986000000    -2.021000000
H     4.346000000    -2.085000000    -2.328000000
H     3.543000000    -3.309000000    -1.945000000
O     1.561000000     4.875000000     1.438000000
H     2.125000000     5.412000000     1.994000000
H     1.889000000     3.983000000     1.555000000
O     4.623000000    -0.215000000    -1.905000000
H     4.435000000     0.543000000    -1.352000000
H     5.465000000    -0.541000000    -1.587000000
O     4.107000000     0.029000000    -4.569000000
H     4.077000000     0.390000000    -3.683000000
H     3.371000000    -0.581000000    -4.603000000
O    -2.737000000     2.274000000    -3.275000000
H    -2.403000000     2.760000000    -4.030000000
H    -2.514000000     1.362000000    -3.461000000
O    -2.387000000    -5.453000000     0.556000000
H    -3.137000000    -5.953000000     0.234000000
H    -2.748000000    -4.594000000     0.775000000
O    -1.466000000    -2.559000000    -4.292000000
H    -2.141000000    -3.236000000    -4.339000000
H    -0.773000000    -2.947000000    -3.757000000
O    -1.485000000    -4.594000000    -2.083000000
H    -2.218000000    -4.839000000    -2.648000000
H    -1.823000000    -4.703000000    -1.194000000
O     3.171000000     5.349000000    -1.683000000
H     3.805000000     6.016000000    -1.948000000
H     2.342000000     5.822000000    -1.612000000
O    -1.773000000     0.042000000    -4.220000000
H    -1.543000000    -0.860000000    -4.440000000
H    -0.989000000     0.548000000    -4.435000000
O    -1.084000000     5.579000000    -2.895000000
H    -1.339000000     4.849000000    -2.331000000
H    -0.246000000     5.874000000    -2.540000000
O     1.894000000    -4.069000000    -1.438000000
H     1.426000000    -4.603000000    -0.795000000
H     1.237000000    -3.863000000    -2.102000000
O    -0.014000000     1.139000000     4.260000000
H     0.344000000     1.619000000     5.006000000
H    -0.587000000     1.769000000     3.823000000
O     4.039000000    -2.525000000     1.136000000
H     3.834000000    -2.711000000     0.219000000
H     3.764000000    -3.312000000     1.607000000
O    -2.983000000     7.419000000    -0.792000000
H    -3.056000000     7.413000000    -1.747000000
H    -2.331000000     6.746000000    -0.597000000
O    -2.624000000    -2.824000000     4.399000000
H    -2.458000000    -1.899000000     4.583000000
H    -3.321000000    -3.068000000     5.007000000
O     0.621000000    -4.311000000     2.178000000
H    -0.076000000    -4.484000000     2.810000000
H     0.980000000    -3.464000000     2.443000000
O     3.335000000    -0.067000000     1.622000000
H     2.480000000    -0.164000000     1.205000000
H     3.604000000    -0.962000000     1.829000000
O    -3.837000000     2.771000000     3.965000000
H    -4.257000000     3.489000000     3.491000000
H    -3.050000000     2.576000000     3.456000000
O    -0.207000000     3.040000000     6.364000000
H     0.718000000     3.218000000     6.192000000
H    -0.612000000     3.906000000     6.417000000
