158
-2983.26287
C     0.073000000     1.393000000    -0.583000000
H     0.081000000     2.271000000    -1.222000000
C     0.927000000     0.264000000    -0.877000000
H     1.712000000     0.459000000    -1.603000000
C     0.796000000    -0.952000000    -0.242000000
H     1.476000000    -1.746000000    -0.433000000
C    -0.195000000    -1.104000000     0.758000000
H    -0.475000000    -1.959000000     1.368000000
C    -0.947000000     0.030000000     1.143000000
H    -1.604000000    -0.022000000     2.007000000
C    -0.816000000     1.246000000     0.496000000
C    -1.739000000     2.351000000     0.850000000
O    -1.775000000     3.341000000     0.189000000
O    -2.502000000     2.273000000     1.843000000
O     1.608000000     3.072000000     2.281000000
H     2.277000000     2.615000000     2.790000000
H     1.954000000     3.085000000     1.388000000
O     6.819000000    -0.789000000    -0.397000000
H     6.373000000    -0.408000000     0.360000000
H     6.864000000    -1.725000000    -0.202000000
O     1.168000000     0.022000000     4.390000000
H     1.970000000     0.531000000     4.273000000
H     0.462000000     0.659000000     4.285000000
O    -1.962000000     3.766000000    -2.741000000
H    -2.148000000     3.513000000    -1.836000000
H    -1.477000000     3.023000000    -3.101000000
O     2.350000000    -7.960000000     0.202000000
H     1.775000000    -7.240000000    -0.058000000
H     1.754000000    -8.681000000     0.406000000
O     1.577000000     3.672000000    -3.116000000
H     1.704000000     4.606000000    -2.949000000
H     2.334000000     3.251000000    -2.709000000
O    -1.723000000    -1.140000000    -2.239000000
H    -1.334000000    -1.178000000    -1.366000000
H    -1.325000000    -1.871000000    -2.711000000
O    -4.399000000    -2.883000000     3.943000000
H    -5.274000000    -2.569000000     4.169000000
H    -4.520000000    -3.815000000     3.758000000
O    -5.086000000     4.956000000    -3.327000000
H    -4.732000000     4.727000000    -2.468000000
H    -4.874000000     4.206000000    -3.882000000
O    -2.226000000     1.266000000     5.922000000
H    -2.171000000     2.056000000     6.459000000
H    -2.234000000     1.589000000     5.021000000
O    -5.523000000     1.682000000    -2.589000000
H    -5.149000000     2.319000000    -1.981000000
H    -5.428000000     2.089000000    -3.450000000
O     0.321000000    -6.131000000    -5.250000000
H     0.502000000    -7.055000000    -5.422000000
H     0.178000000    -6.087000000    -4.305000000
O    -4.481000000     3.301000000    -0.710000000
H    -3.618000000     3.192000000    -0.310000000
H    -5.043000000     3.590000000     0.009000000
O    -1.407000000     5.910000000     0.120000000
H    -0.687000000     6.197000000    -0.441000000
H    -1.365000000     4.954000000     0.094000000
O    -4.646000000     0.354000000     1.709000000
H    -4.166000000    -0.470000000     1.788000000
H    -3.977000000     1.031000000     1.810000000
O     0.949000000     6.207000000     3.650000000
H     0.525000000     5.405000000     3.344000000
H     0.224000000     6.787000000     3.881000000
O     3.482000000     2.268000000    -1.798000000
H     3.307000000     1.950000000    -0.913000000
H     3.948000000     1.549000000    -2.224000000
O    -6.410000000     2.232000000     2.158000000
H    -5.777000000     1.559000000     1.907000000
H    -6.142000000     3.008000000     1.665000000
O     4.497000000    -6.618000000     1.193000000
H     4.214000000    -5.792000000     0.801000000
H     3.833000000    -7.251000000     0.922000000
O    -2.714000000    -5.202000000    -2.292000000
H    -2.751000000    -5.245000000    -3.247000000
H    -1.915000000    -5.677000000    -2.062000000
O    -1.860000000    -6.198000000     3.607000000
H    -1.685000000    -6.919000000     3.003000000
H    -1.293000000    -5.489000000     3.305000000
O    -5.520000000     4.690000000     1.474000000
H    -4.875000000     5.288000000     1.853000000
H    -6.364000000     5.107000000     1.647000000
O    -0.600000000    -6.782000000    -2.012000000
H    -0.917000000    -7.651000000    -1.764000000
H     0.265000000    -6.942000000    -2.390000000
O     6.534000000    -3.649000000     0.612000000
H     6.513000000    -4.394000000     0.011000000
H     5.645000000    -3.602000000     0.965000000
O    -0.050000000    -4.140000000     2.586000000
H    -0.670000000    -3.524000000     2.977000000
H     0.779000000    -3.959000000     3.029000000
O     0.189000000     1.602000000    -3.952000000
H     0.884000000     0.954000000    -4.068000000
H     0.632000000     2.365000000    -3.582000000
O     2.825000000    -5.180000000    -3.863000000
H     2.259000000    -5.830000000    -3.448000000
H     3.456000000    -5.696000000    -4.365000000
O     2.152000000     0.123000000    -5.246000000
H     1.530000000     0.289000000    -5.954000000
H     2.476000000    -0.762000000    -5.413000000
O     6.304000000    -3.827000000    -2.398000000
H     6.731000000    -3.086000000    -2.829000000
H     5.873000000    -4.301000000    -3.109000000
O     1.133000000     6.917000000    -0.956000000
H     1.554000000     7.664000000    -1.383000000
H     1.861000000     6.380000000    -0.642000000
O     4.712000000    -0.017000000    -2.861000000
H     5.315000000    -0.598000000    -2.397000000
H     3.958000000    -0.570000000    -3.067000000
O     4.023000000     2.723000000    -4.850000000
H     3.497000000     2.177000000    -4.267000000
H     4.053000000     3.576000000    -4.417000000
O     2.275000000    -2.440000000    -3.328000000
H     1.350000000    -2.292000000    -3.527000000
H     2.431000000    -3.350000000    -3.579000000
O     0.598000000    -5.429000000     0.193000000
H     0.014000000    -5.965000000    -0.344000000
H     0.010000000    -4.914000000     0.745000000
O    -2.317000000     0.973000000    -4.052000000
H    -2.258000000     0.184000000    -3.515000000
H    -1.418000000     1.298000000    -4.100000000
O    -3.783000000    -2.444000000    -3.224000000
H    -3.533000000    -2.523000000    -4.144000000
H    -2.983000000    -2.162000000    -2.781000000
O    -1.062000000     6.192000000    -3.583000000
H    -1.308000000     5.411000000    -3.086000000
H    -0.105000000     6.171000000    -3.601000000
O     3.342000000    -4.386000000     0.017000000
H     2.393000000    -4.498000000     0.074000000
H     3.479000000    -3.923000000    -0.810000000
O    -2.034000000     6.536000000     3.631000000
H    -2.312000000     5.650000000     3.398000000
H    -2.815000000     6.941000000     4.006000000
O    -0.357000000     2.117000000     3.595000000
H     0.353000000     2.519000000     3.095000000
H    -1.156000000     2.451000000     3.188000000
O     4.159000000    -3.099000000     2.621000000
H     3.709000000    -3.101000000     1.776000000
H     3.474000000    -2.889000000     3.256000000
O    -3.845000000     6.817000000    -1.127000000
H    -3.427000000     7.300000000    -1.840000000
H    -3.165000000     6.222000000    -0.811000000
O    -0.578000000    -2.708000000    -4.110000000
H    -0.663000000    -3.566000000    -4.526000000
H    -0.907000000    -2.091000000    -4.763000000
O    -5.320000000     1.844000000     4.686000000
H    -5.917000000     2.086000000     5.394000000
H    -5.824000000     1.992000000     3.887000000
O    -1.649000000    -2.520000000     4.021000000
H    -1.395000000    -1.655000000     4.341000000
H    -2.596000000    -2.459000000     3.893000000
O     1.720000000    -2.625000000     3.905000000
H     1.945000000    -2.784000000     4.822000000
H     1.404000000    -1.722000000     3.890000000
O     3.942000000     1.199000000     0.800000000
H     3.110000000     0.893000000     1.160000000
H     4.606000000     0.823000000     1.379000000
O    -3.140000000     4.078000000     3.834000000
H    -3.822000000     3.627000000     4.331000000
H    -3.066000000     3.580000000     3.020000000
