158
-3053.35649
C     0.069000000     1.399000000    -0.479000000
H     0.233000000     2.391000000    -0.892000000
C     0.343000000     0.271000000    -1.276000000
H     0.693000000     0.326000000    -2.304000000
C     0.244000000    -0.989000000    -0.701000000
H     0.630000000    -1.807000000    -1.305000000
C    -0.153000000    -1.130000000     0.616000000
H    -0.257000000    -2.144000000     0.992000000
C    -0.460000000     0.010000000     1.390000000
H    -0.854000000    -0.113000000     2.395000000
C    -0.275000000     1.292000000     0.884000000
C    -0.408000000     2.528000000     1.767000000
O    -0.656000000     3.610000000     1.204000000
O    -0.614000000     2.401000000     2.977000000
O     3.924000000     0.931000000     0.299000000
H     3.540000000     0.063000000     0.423000000
H     3.741000000     1.146000000    -0.615000000
O     2.393000000    -1.713000000     4.382000000
H     2.023000000    -0.834000000     4.458000000
H     1.942000000    -2.221000000     5.056000000
O     1.056000000     4.686000000    -0.598000000
H     0.417000000     4.660000000     0.115000000
H     1.849000000     4.302000000    -0.222000000
O    -4.477000000     5.692000000    -0.856000000
H    -5.110000000     5.472000000    -0.172000000
H    -3.955000000     4.897000000    -0.964000000
O     0.714000000    -5.382000000     3.795000000
H     0.047000000    -5.942000000     4.194000000
H     0.218000000    -4.766000000     3.256000000
O     2.558000000     3.060000000    -2.702000000
H     1.934000000     3.702000000    -2.364000000
H     3.279000000     3.587000000    -3.048000000
O    -2.743000000     0.454000000    -2.281000000
H    -1.987000000     0.516000000    -2.864000000
H    -2.366000000     0.427000000    -1.401000000
O    -2.593000000     3.477000000    -0.698000000
H    -1.847000000     3.603000000    -0.111000000
H    -2.198000000     3.337000000    -1.559000000
O    -1.565000000    -0.518000000     5.626000000
H    -2.128000000     0.185000000     5.300000000
H    -1.846000000    -1.294000000     5.141000000
O     1.874000000    -0.430000000    -4.279000000
H     2.535000000    -0.470000000    -3.587000000
H     1.125000000    -0.907000000    -3.923000000
O     3.982000000     4.128000000     3.525000000
H     4.003000000     3.704000000     2.667000000
H     3.177000000     4.646000000     3.516000000
O     2.047000000    -4.503000000    -0.314000000
H     2.041000000    -4.071000000     0.540000000
H     1.250000000    -4.193000000    -0.745000000
O     1.552000000     2.964000000     6.663000000
H     1.205000000     2.462000000     7.402000000
H     0.775000000     3.253000000     6.185000000
O    -3.686000000     1.339000000     0.688000000
H    -2.995000000     1.886000000     0.315000000
H    -4.076000000     1.881000000     1.374000000
O    -2.922000000     4.479000000     2.764000000
H    -2.137000000     3.939000000     2.672000000
H    -3.645000000     3.851000000     2.774000000
O    -3.918000000    -2.137000000    -0.269000000
H    -4.137000000    -2.965000000     0.158000000
H    -2.975000000    -2.189000000    -0.423000000
O    -2.720000000     5.670000000     5.521000000
H    -2.701000000     6.619000000     5.395000000
H    -3.013000000     5.322000000     4.679000000
O    -3.934000000    -1.387000000    -3.992000000
H    -3.545000000    -1.042000000    -3.189000000
H    -4.459000000    -0.663000000    -4.334000000
O     4.180000000    -5.907000000     1.259000000
H     3.814000000    -5.544000000     2.066000000
H     3.734000000    -5.430000000     0.559000000
O     1.238000000     5.150000000     3.208000000
H     1.142000000     5.839000000     2.551000000
H     0.872000000     4.370000000     2.792000000
O     3.757000000     0.765000000    -2.545000000
H     4.437000000     0.841000000    -3.214000000
H     3.284000000     1.596000000    -2.587000000
O    -3.144000000    -1.227000000     3.548000000
H    -3.937000000    -1.762000000     3.526000000
H    -2.818000000    -1.245000000     2.648000000
O     4.350000000    -4.564000000    -2.232000000
H     3.675000000    -4.424000000    -1.568000000
H     4.712000000    -3.693000000    -2.393000000
O     0.284000000    -7.580000000    -1.565000000
H     0.575000000    -7.367000000    -0.679000000
H     0.959000000    -7.211000000    -2.135000000
O     0.502000000    -7.224000000     1.333000000
H     0.070000000    -6.398000000     1.549000000
H     0.641000000    -7.649000000     2.179000000
O     0.645000000     6.985000000     1.086000000
H     1.528000000     6.811000000     0.762000000
H     0.238000000     7.514000000     0.400000000
O    -1.365000000    -5.008000000     2.099000000
H    -2.287000000    -5.236000000     2.222000000
H    -1.370000000    -4.361000000     1.394000000
O     0.986000000     2.618000000    -5.070000000
H     1.488000000     2.771000000    -5.870000000
H     1.637000000     2.334000000    -4.429000000
O    -4.864000000    -3.900000000    -2.794000000
H    -4.030000000    -4.368000000    -2.830000000
H    -4.650000000    -3.007000000    -3.063000000
O     2.412000000    -6.604000000    -2.844000000
H     3.297000000    -6.439000000    -2.518000000
H     2.544000000    -7.001000000    -3.705000000
O     3.146000000     3.500000000     0.675000000
H     3.952000000     3.792000000     0.249000000
H     3.203000000     2.545000000     0.668000000
O     0.788000000    -1.365000000     6.863000000
H    -0.008000000    -1.180000000     6.365000000
H     0.606000000    -2.195000000     7.305000000
O    -0.901000000     3.642000000    -2.776000000
H    -0.095000000     3.256000000    -3.117000000
H    -1.384000000     3.918000000    -3.555000000
O     2.432000000    -1.046000000    -6.914000000
H     2.043000000    -0.900000000    -6.052000000
H     2.897000000    -1.879000000    -6.830000000
O    -2.235000000    -6.470000000    -1.100000000
H    -2.745000000    -7.064000000    -1.650000000
H    -1.333000000    -6.782000000    -1.182000000
O    -1.138000000    -3.686000000    -0.579000000
H    -1.675000000    -4.476000000    -0.637000000
H    -0.456000000    -3.810000000    -1.239000000
O     0.288000000    -3.660000000    -6.330000000
H     0.747000000    -4.499000000    -6.318000000
H     0.266000000    -3.412000000    -7.255000000
O    -0.639000000    -1.867000000    -4.418000000
H    -1.406000000    -2.328000000    -4.078000000
H    -0.333000000    -2.413000000    -5.142000000
O    -1.298000000     0.747000000    -4.656000000
H    -1.045000000    -0.174000000    -4.727000000
H    -0.561000000     1.228000000    -5.033000000
O     0.377000000     6.324000000    -2.803000000
H    -0.500000000     6.385000000    -3.180000000
H     0.289000000     5.687000000    -2.093000000
O     0.414000000    -4.351000000    -2.551000000
H    -0.325000000    -4.290000000    -3.156000000
H     0.818000000    -5.195000000    -2.752000000
O    -1.708000000     6.874000000     2.525000000
H    -0.768000000     6.921000000     2.351000000
H    -1.935000000     5.958000000     2.369000000
O     0.915000000     0.545000000     4.240000000
H     0.659000000     0.776000000     5.133000000
H     0.540000000     1.239000000     3.696000000
O    -1.928000000    -4.936000000    -4.121000000
H    -1.667000000    -5.855000000    -4.184000000
H    -1.730000000    -4.572000000    -4.984000000
O    -3.483000000     1.782000000     5.548000000
H    -4.271000000     2.323000000     5.494000000
H    -2.896000000     2.147000000     4.886000000
O     2.345000000    -3.467000000     2.417000000
H     2.414000000    -2.720000000     3.010000000
H     1.849000000    -4.120000000     2.911000000
O     4.319000000    -2.073000000     0.692000000
H     5.074000000    -1.871000000     1.245000000
H     3.750000000    -2.605000000     1.249000000
O    -0.527000000     3.798000000     5.167000000
H    -0.642000000     4.707000000     4.890000000
H    -0.749000000     3.282000000     4.393000000
