158
-3032.05150
C    -0.742000000     0.731000000    -1.113000000
H    -1.343000000     1.076000000    -1.951000000
C    -0.821000000    -0.660000000    -0.769000000
H    -1.478000000    -1.320000000    -1.329000000
C     0.038000000    -1.233000000     0.230000000
H     0.087000000    -2.278000000     0.464000000
C     0.818000000    -0.342000000     0.968000000
H     1.487000000    -0.750000000     1.722000000
C     0.806000000     1.010000000     0.725000000
H     1.480000000     1.660000000     1.277000000
C     0.083000000     1.601000000    -0.376000000
C     0.153000000     3.017000000    -0.688000000
O    -0.739000000     3.491000000    -1.368000000
O     0.979000000     3.746000000    -0.210000000
O    -2.523000000     3.480000000    -3.359000000
H    -3.321000000     2.955000000    -3.417000000
H    -2.073000000     3.145000000    -2.584000000
O     2.130000000    -4.033000000    -0.832000000
H     1.810000000    -4.884000000    -0.535000000
H     2.791000000    -3.786000000    -0.184000000
O     3.574000000     5.023000000    -2.078000000
H     3.388000000     5.550000000    -1.301000000
H     4.528000000     5.030000000    -2.149000000
O     5.959000000    -0.180000000     3.807000000
H     5.420000000     0.114000000     3.072000000
H     5.575000000     0.249000000     4.572000000
O     3.617000000     6.903000000     0.082000000
H     3.524000000     7.840000000    -0.090000000
H     3.834000000     6.850000000     1.013000000
O    -3.618000000    -0.151000000    -4.302000000
H    -2.927000000     0.275000000    -4.808000000
H    -3.236000000    -0.986000000    -4.031000000
O    -4.285000000     2.059000000     0.521000000
H    -3.716000000     2.755000000     0.193000000
H    -4.318000000     1.420000000    -0.191000000
O     3.765000000     3.259000000     0.771000000
H     2.916000000     3.362000000     0.342000000
H     4.299000000     3.972000000     0.420000000
O     4.341000000     0.688000000     1.592000000
H     4.242000000     0.161000000     0.800000000
H     4.458000000     1.583000000     1.272000000
O    -3.019000000    -0.208000000     2.641000000
H    -3.156000000     0.621000000     3.100000000
H    -3.030000000     0.028000000     1.713000000
O    -2.465000000     4.277000000     0.560000000
H    -2.026000000     4.889000000     1.151000000
H    -1.781000000     3.999000000    -0.048000000
O    -1.355000000     3.366000000     4.540000000
H    -0.980000000     4.153000000     4.143000000
H    -2.298000000     3.455000000     4.401000000
O     1.002000000    -4.882000000     2.254000000
H     1.042000000    -5.232000000     1.364000000
H     0.196000000    -5.249000000     2.620000000
O    -3.581000000     4.211000000     3.084000000
H    -3.257000000     4.094000000     2.191000000
H    -4.311000000     3.595000000     3.156000000
O     1.875000000     3.355000000     4.379000000
H     1.905000000     4.162000000     4.893000000
H     1.181000000     2.837000000     4.787000000
O     3.277000000     0.413000000    -1.214000000
H     3.888000000     0.994000000    -1.667000000
H     2.978000000     0.920000000    -0.459000000
O    -0.468000000     0.849000000     4.623000000
H    -1.225000000     0.303000000     4.834000000
H    -0.845000000     1.654000000     4.267000000
O    -0.800000000     5.590000000     2.941000000
H     0.056000000     5.244000000     2.689000000
H    -0.712000000     6.538000000     2.848000000
O     0.833000000    -6.292000000    -0.149000000
H     1.371000000    -6.657000000    -0.851000000
H     0.493000000    -7.058000000     0.314000000
O     1.288000000    -3.285000000    -5.152000000
H     1.873000000    -3.733000000    -4.541000000
H     0.692000000    -2.788000000    -4.591000000
O     1.744000000     4.942000000     2.032000000
H     1.856000000     4.174000000     2.592000000
H     1.413000000     4.589000000     1.206000000
O    -0.608000000    -4.619000000    -2.433000000
H    -0.043000000    -4.267000000    -1.745000000
H    -1.293000000    -5.092000000    -1.961000000
O    -4.530000000    -2.622000000    -1.226000000
H    -5.212000000    -3.241000000    -0.968000000
H    -4.370000000    -2.100000000    -0.440000000
O    -2.574000000     5.097000000    -5.462000000
H    -3.351000000     5.651000000    -5.529000000
H    -2.710000000     4.591000000    -4.660000000
O    -1.459000000    -5.534000000     3.489000000
H    -1.248000000    -4.743000000     3.986000000
H    -2.389000000    -5.683000000     3.662000000
O     2.966000000    -4.384000000    -3.363000000
H     2.892000000    -4.243000000    -2.419000000
H     3.861000000    -4.701000000    -3.488000000
O    -4.424000000     1.078000000    -2.024000000
H    -4.061000000     0.593000000    -2.765000000
H    -5.077000000     1.659000000    -2.414000000
O     1.823000000    -0.628000000     4.817000000
H     0.986000000    -0.165000000     4.808000000
H     1.778000000    -1.218000000     4.064000000
O    -0.626000000    -3.342000000     5.537000000
H    -0.828000000    -2.685000000     4.871000000
H    -0.957000000    -2.965000000     6.352000000
O     3.491000000     7.026000000     2.912000000
H     3.124000000     7.796000000     3.346000000
H     2.744000000     6.440000000     2.792000000
O    -2.532000000    -2.670000000    -3.732000000
H    -3.309000000    -3.100000000    -3.376000000
H    -1.816000000    -3.277000000    -3.544000000
O     3.725000000    -2.579000000     5.838000000
H     2.950000000    -2.189000000     5.433000000
H     3.904000000    -2.023000000     6.595000000
O     5.311000000     2.057000000    -1.970000000
H     4.964000000     2.938000000    -2.107000000
H     6.222000000     2.111000000    -2.260000000
O     1.590000000    -1.605000000    -2.671000000
H     1.741000000    -0.723000000    -2.331000000
H     1.506000000    -2.151000000    -1.889000000
O    -1.998000000     1.710000000    -5.233000000
H    -2.005000000     2.473000000    -4.655000000
H    -1.070000000     1.515000000    -5.360000000
O     0.525000000     1.119000000    -5.308000000
H     0.753000000     0.429000000    -5.931000000
H     1.268000000     1.152000000    -4.705000000
O    -2.545000000    -2.320000000    -6.471000000
H    -2.543000000    -2.441000000    -5.521000000
H    -1.906000000    -2.954000000    -6.795000000
O     2.414000000     3.147000000    -3.867000000
H     1.484000000     3.373000000    -3.827000000
H     2.856000000     3.872000000    -3.424000000
O     0.838000000    -5.512000000     5.913000000
H     0.511000000    -4.629000000     5.735000000
H     1.603000000    -5.603000000     5.345000000
O     0.862000000     6.417000000    -1.145000000
H     1.329000000     6.799000000    -0.402000000
H     0.958000000     5.472000000    -1.028000000
O     0.060000000     4.652000000    -3.979000000
H    -0.460000000     5.436000000    -4.154000000
H    -0.426000000     4.191000000    -3.294000000
O    -1.542000000     7.860000000    -0.476000000
H    -1.193000000     7.037000000    -0.817000000
H    -0.918000000     8.123000000     0.201000000
O    -3.199000000    -5.899000000    -1.169000000
H    -2.683000000    -6.625000000    -0.819000000
H    -4.095000000    -6.235000000    -1.202000000
O     2.606000000    -2.733000000     2.908000000
H     2.034000000    -3.501000000     2.886000000
H     3.291000000    -2.927000000     2.269000000
O     4.128000000    -3.461000000     0.724000000
H     4.628000000    -4.256000000     0.541000000
H     4.565000000    -2.780000000     0.214000000
O    -0.840000000    -2.045000000     3.122000000
H    -0.255000000    -1.982000000     2.367000000
H    -1.584000000    -1.486000000     2.897000000
O     4.519000000     3.199000000     3.730000000
H     4.475000000     3.407000000     2.797000000
H     3.605000000     3.087000000     3.993000000
O    -6.042000000    -1.532000000    -3.301000000
H    -5.314000000    -1.819000000    -2.750000000
H    -5.623000000    -1.169000000    -4.081000000
