158
-3049.60293
C    -0.789000000     1.274000000    -0.217000000
H    -1.284000000     2.208000000    -0.472000000
C     0.475000000     0.996000000    -0.718000000
H     0.891000000     1.779000000    -1.348000000
C     1.172000000    -0.175000000    -0.445000000
H     2.103000000    -0.357000000    -0.905000000
C     0.524000000    -1.143000000     0.331000000
H     1.051000000    -2.064000000     0.567000000
C    -0.719000000    -0.868000000     0.880000000
H    -1.164000000    -1.705000000     1.413000000
C    -1.408000000     0.381000000     0.599000000
C    -2.809000000     0.594000000     1.156000000
O    -3.252000000     1.742000000     1.336000000
O    -3.649000000    -0.310000000     1.145000000
O     4.479000000    -0.886000000     4.294000000
H     3.895000000    -0.263000000     4.727000000
H     4.809000000    -0.413000000     3.530000000
O    -7.496000000    -1.071000000    -0.314000000
H    -6.600000000    -1.348000000    -0.503000000
H    -8.031000000    -1.841000000    -0.509000000
O     2.927000000    -2.839000000     2.582000000
H     3.577000000    -2.615000000     3.248000000
H     3.301000000    -2.512000000     1.763000000
O     2.423000000    -5.657000000     2.242000000
H     2.436000000    -4.724000000     2.457000000
H     2.035000000    -5.696000000     1.368000000
O     2.003000000     1.214000000     5.045000000
H     1.558000000     0.923000000     4.249000000
H     1.303000000     1.555000000     5.601000000
O     4.417000000     4.067000000    -0.243000000
H     3.893000000     3.738000000     0.487000000
H     4.167000000     4.987000000    -0.323000000
O    -4.483000000     4.740000000    -0.919000000
H    -4.322000000     3.967000000    -1.460000000
H    -3.915000000     5.415000000    -1.290000000
O    -3.365000000    -5.931000000     3.419000000
H    -3.694000000    -5.104000000     3.066000000
H    -3.406000000    -5.818000000     4.369000000
O     0.185000000     7.373000000    -0.505000000
H    -0.503000000     6.719000000    -0.632000000
H     0.627000000     7.424000000    -1.353000000
O    -0.905000000    -0.807000000     4.658000000
H    -0.572000000    -0.061000000     4.160000000
H    -1.721000000    -1.044000000     4.217000000
O    -0.565000000     3.930000000    -2.269000000
H    -0.609000000     3.244000000    -2.935000000
H    -1.078000000     4.651000000    -2.634000000
O    -8.802000000     0.376000000     2.071000000
H    -7.861000000     0.202000000     2.089000000
H    -9.086000000     0.065000000     1.211000000
O    -2.739000000     2.786000000     3.887000000
H    -2.854000000     2.308000000     3.066000000
H    -3.552000000     3.280000000     3.993000000
O    -2.573000000     4.306000000     0.926000000
H    -2.814000000     3.458000000     1.297000000
H    -3.264000000     4.495000000     0.291000000
O    -5.659000000    -4.264000000     0.975000000
H    -5.803000000    -4.004000000     0.065000000
H    -5.730000000    -5.219000000     0.966000000
O    -5.099000000     3.667000000     5.083000000
H    -4.726000000     4.086000000     5.859000000
H    -5.976000000     3.395000000     5.356000000
O    -2.537000000     6.267000000     3.013000000
H    -3.066000000     5.787000000     3.651000000
H    -2.577000000     5.733000000     2.220000000
O    -3.144000000    -1.695000000     3.523000000
H    -3.989000000    -2.070000000     3.772000000
H    -3.359000000    -1.049000000     2.850000000
O     4.004000000    -0.620000000    -6.446000000
H     3.652000000    -0.590000000    -5.556000000
H     3.291000000    -0.299000000    -6.997000000
O     5.935000000     2.231000000    -1.930000000
H     5.238000000     2.816000000    -1.633000000
H     5.546000000     1.357000000    -1.897000000
O     4.855000000    -0.218000000    -1.960000000
H     5.657000000    -0.727000000    -2.082000000
H     4.517000000    -0.088000000    -2.846000000
O     6.173000000     3.085000000     1.868000000
H     5.899000000     3.418000000     1.013000000
H     5.852000000     3.736000000     2.492000000
O    -5.229000000     1.656000000    -0.748000000
H    -4.800000000     1.140000000    -0.065000000
H    -5.989000000     2.044000000    -0.314000000
O    -6.171000000     1.308000000    -3.207000000
H    -5.616000000     1.148000000    -2.444000000
H    -7.047000000     1.433000000    -2.844000000
O     5.489000000     0.428000000     2.054000000
H     6.394000000     0.168000000     2.223000000
H     5.544000000     1.358000000     1.835000000
O     0.387000000    -3.128000000     4.205000000
H    -0.245000000    -2.419000000     4.323000000
H     1.072000000    -2.750000000     3.654000000
O    -0.953000000     1.968000000    -4.271000000
H    -0.863000000     1.045000000    -4.035000000
H    -0.454000000     2.057000000    -5.083000000
O     2.644000000     3.618000000     1.984000000
H     2.209000000     3.572000000     2.836000000
H     1.932000000     3.758000000     1.359000000
O    -2.468000000    -3.714000000    -0.415000000
H    -3.298000000    -4.089000000    -0.119000000
H    -1.857000000    -3.892000000     0.300000000
O     0.907000000     4.331000000    -0.085000000
H     1.601000000     4.955000000    -0.301000000
H     0.496000000     4.130000000    -0.926000000
O     0.193000000    -0.793000000    -4.536000000
H    -0.393000000    -1.260000000    -3.941000000
H     0.139000000    -1.281000000    -5.358000000
O     7.176000000    -1.036000000    -2.804000000
H     7.032000000    -1.563000000    -3.591000000
H     8.118000000    -1.095000000    -2.645000000
O    -3.595000000     2.635000000    -4.130000000
H    -3.874000000     1.879000000    -3.613000000
H    -2.642000000     2.559000000    -4.171000000
O     2.752000000     2.925000000    -4.262000000
H     2.082000000     3.579000000    -4.065000000
H     2.825000000     2.937000000    -5.217000000
O     4.314000000    -1.460000000     0.720000000
H     4.499000000    -1.157000000    -0.169000000
H     4.740000000    -0.817000000     1.286000000
O    -1.761000000    -1.333000000    -2.334000000
H    -2.380000000    -0.632000000    -2.134000000
H    -1.231000000    -1.419000000    -1.541000000
O     2.797000000    -2.831000000    -3.777000000
H     2.499000000    -1.990000000    -4.125000000
H     3.357000000    -3.189000000    -4.466000000
O    -1.258000000    -4.502000000     2.095000000
H    -0.858000000    -4.196000000     2.909000000
H    -1.854000000    -5.199000000     2.367000000
O    -5.698000000     2.358000000     2.892000000
H    -5.019000000     2.479000000     2.228000000
H    -5.601000000     3.111000000     3.475000000
O    -0.314000000     4.070000000     2.252000000
H     0.013000000     4.454000000     1.438000000
H    -1.241000000     3.900000000     2.080000000
O    -4.539000000    -1.770000000    -0.737000000
H    -3.743000000    -2.104000000    -1.152000000
H    -4.227000000    -1.303000000     0.038000000
O     2.145000000    -5.315000000    -2.677000000
H     2.260000000    -4.380000000    -2.504000000
H     1.410000000    -5.573000000    -2.122000000
O     0.742000000    -5.841000000    -0.021000000
H    -0.041000000    -5.466000000     0.383000000
H     0.581000000    -6.784000000    -0.025000000
O     2.655000000     0.046000000    -4.099000000
H     2.608000000     0.962000000    -3.825000000
H     1.778000000    -0.299000000    -3.935000000
O    -2.092000000    -3.842000000    -3.231000000
H    -1.841000000    -2.960000000    -2.957000000
H    -2.361000000    -4.277000000    -2.422000000
O    -5.629000000    -3.087000000     3.348000000
H    -5.654000000    -3.601000000     2.540000000
H    -6.225000000    -2.356000000     3.186000000
O     0.457000000     1.349000000     2.702000000
H     0.785000000     1.153000000     1.825000000
H     0.322000000     2.297000000     2.700000000
O    -6.056000000    -0.132000000     2.091000000
H    -5.925000000     0.807000000     2.225000000
H    -5.243000000    -0.431000000     1.683000000
