158
-3028.76098
C    -1.312000000     0.475000000    -0.616000000
H    -2.223000000     0.865000000    -1.062000000
C    -0.036000000     0.648000000    -1.218000000
H     0.107000000     1.218000000    -2.132000000
C     1.087000000     0.179000000    -0.517000000
H     2.058000000     0.386000000    -0.877000000
C     0.982000000    -0.358000000     0.761000000
H     1.909000000    -0.572000000     1.286000000
C    -0.216000000    -0.593000000     1.368000000
H    -0.222000000    -1.168000000     2.291000000
C    -1.378000000    -0.212000000     0.704000000
C    -2.670000000    -0.331000000     1.440000000
O    -3.702000000    -0.172000000     0.790000000
O    -2.773000000    -0.753000000     2.593000000
O     3.575000000     2.296000000     1.533000000
H     4.210000000     1.658000000     1.856000000
H     3.611000000     2.209000000     0.580000000
O     4.322000000    -1.056000000     4.105000000
H     3.461000000    -1.057000000     4.524000000
H     4.574000000    -1.978000000     4.074000000
O    -4.602000000    -0.419000000    -1.654000000
H    -4.304000000    -0.374000000    -0.746000000
H    -4.691000000    -1.355000000    -1.831000000
O     2.200000000     6.275000000    -2.204000000
H     3.116000000     6.539000000    -2.294000000
H     2.237000000     5.429000000    -1.759000000
O    -2.533000000     1.687000000    -3.592000000
H    -3.366000000     1.224000000    -3.502000000
H    -2.137000000     1.316000000    -4.380000000
O    -1.575000000     2.326000000     4.062000000
H    -0.914000000     2.506000000     3.393000000
H    -1.381000000     1.437000000     4.358000000
O     5.166000000     4.099000000    -2.379000000
H     5.074000000     5.051000000    -2.338000000
H     4.390000000     3.803000000    -2.854000000
O    -4.781000000    -0.809000000     4.038000000
H    -5.377000000    -0.952000000     3.303000000
H    -3.918000000    -0.727000000     3.633000000
O    -2.611000000     3.727000000    -1.763000000
H    -3.190000000     3.245000000    -1.172000000
H    -2.673000000     3.258000000    -2.595000000
O    -2.995000000    -3.291000000     3.098000000
H    -3.095000000    -3.514000000     2.173000000
H    -2.772000000    -2.360000000     3.098000000
O    -4.530000000     2.664000000     4.388000000
H    -3.962000000     1.922000000     4.181000000
H    -4.672000000     3.099000000     3.547000000
O    -1.520000000    -0.218000000     4.845000000
H    -2.148000000    -0.463000000     5.525000000
H    -1.889000000    -0.576000000     4.038000000
O    -5.733000000     0.557000000     6.542000000
H    -5.569000000     1.452000000     6.245000000
H    -5.661000000     0.024000000     5.751000000
O     0.059000000     4.082000000    -1.556000000
H    -0.860000000     3.828000000    -1.475000000
H     0.268000000     4.497000000    -0.719000000
O     8.008000000     0.198000000    -0.607000000
H     8.224000000    -0.462000000    -1.265000000
H     7.065000000     0.330000000    -0.700000000
O    -6.971000000    -1.948000000     2.253000000
H    -6.866000000    -2.847000000     1.940000000
H    -7.892000000    -1.745000000     2.091000000
O     5.100000000     1.127000000    -1.083000000
H     4.809000000     0.458000000    -0.463000000
H     4.655000000     0.905000000    -1.901000000
O     6.709000000     2.015000000    -3.860000000
H     6.394000000     2.404000000    -3.044000000
H     7.083000000     2.750000000    -4.347000000
O     1.420000000     2.788000000    -5.498000000
H     1.205000000     3.351000000    -4.755000000
H     1.186000000     3.307000000    -6.267000000
O    -4.115000000     2.458000000    -0.018000000
H    -3.924000000     1.556000000     0.239000000
H    -5.052000000     2.561000000     0.149000000
O     0.604000000     2.755000000     2.401000000
H     1.195000000     2.334000000     1.778000000
H     0.507000000     3.649000000     2.072000000
O    -7.740000000    -0.685000000    -1.354000000
H    -8.008000000    -0.410000000    -2.231000000
H    -6.783000000    -0.701000000    -1.391000000
O    -3.003000000    -1.450000000     7.002000000
H    -3.768000000    -1.618000000     6.452000000
H    -3.034000000    -2.133000000     7.672000000
O     2.502000000     3.419000000    -2.017000000
H     1.578000000     3.553000000    -1.806000000
H     2.528000000     2.565000000    -2.448000000
O     5.304000000    -2.364000000    -1.476000000
H     6.139000000    -2.149000000    -1.891000000
H     4.872000000    -2.951000000    -2.097000000
O     2.412000000    -4.139000000     4.424000000
H     1.557000000    -3.764000000     4.211000000
H     2.602000000    -3.816000000     5.304000000
O     4.324000000     3.671000000    -5.384000000
H     3.427000000     3.396000000    -5.196000000
H     4.692000000     2.952000000    -5.898000000
O    -0.314000000     0.707000000    -5.517000000
H    -0.098000000     0.413000000    -6.403000000
H     0.315000000     1.404000000    -5.336000000
O     3.905000000    -1.477000000    -5.308000000
H     4.320000000    -1.951000000    -6.029000000
H     3.113000000    -1.979000000    -5.115000000
O    -4.317000000    -4.534000000     0.984000000
H    -3.827000000    -4.574000000     0.162000000
H    -5.146000000    -4.118000000     0.749000000
O    -4.774000000    -3.498000000     5.519000000
H    -4.787000000    -2.666000000     5.047000000
H    -4.107000000    -4.018000000     5.069000000
O     2.298000000     2.214000000     4.469000000
H     2.103000000     1.295000000     4.285000000
H     2.182000000     2.657000000     3.629000000
O     6.917000000     3.477000000    -0.445000000
H     6.652000000     2.729000000     0.090000000
H     6.219000000     3.568000000    -1.093000000
O     4.146000000     0.826000000    -3.851000000
H     5.005000000     1.051000000    -4.210000000
H     3.926000000    -0.010000000    -4.261000000
O     4.079000000    -4.407000000    -2.932000000
H     3.431000000    -4.075000000    -3.553000000
H     3.928000000    -5.352000000    -2.910000000
O    -0.451000000    -4.897000000    -2.187000000
H    -0.068000000    -4.073000000    -1.887000000
H    -0.383000000    -5.481000000    -1.431000000
O     1.617000000    -3.278000000    -4.619000000
H     0.878000000    -3.160000000    -4.023000000
H     1.231000000    -3.658000000    -5.408000000
O    -1.881000000     4.127000000    -5.406000000
H    -1.686000000     3.191000000    -5.362000000
H    -1.066000000     4.553000000    -5.139000000
O     0.533000000    -2.386000000    -1.502000000
H     1.345000000    -2.169000000    -1.959000000
H     0.421000000    -1.682000000    -0.863000000
O    -7.512000000     2.154000000     2.995000000
H    -6.797000000     1.646000000     2.613000000
H    -8.270000000     1.949000000     2.448000000
O     5.487000000     1.135000000     2.992000000
H     6.073000000     0.385000000     2.887000000
H     4.924000000     0.898000000     3.729000000
O     3.791000000    -3.645000000     2.031000000
H     3.718000000    -4.468000000     1.548000000
H     3.325000000    -3.805000000     2.851000000
O    -0.823000000    -1.499000000    -4.047000000
H    -0.709000000    -1.395000000    -3.103000000
H    -0.571000000    -0.651000000    -4.413000000
O    -3.656000000     4.620000000     2.182000000
H    -3.107000000     5.299000000     1.790000000
H    -3.395000000     3.814000000     1.735000000
O    -0.379000000    -3.631000000     4.161000000
H    -1.079000000    -3.796000000     3.530000000
H    -0.738000000    -3.923000000     4.999000000
O     4.534000000    -0.876000000     0.753000000
H     4.617000000    -1.498000000     0.030000000
H     4.449000000    -1.425000000     1.532000000
O     1.667000000    -0.944000000     5.703000000
H     0.716000000    -0.947000000     5.600000000
H     1.848000000    -1.687000000     6.278000000
O    -6.012000000     0.626000000     1.129000000
H    -6.540000000    -0.167000000     1.222000000
H    -5.109000000     0.310000000     1.097000000
