158
-3004.15998
C    -1.194000000     0.703000000    -0.335000000
H    -2.089000000     0.964000000    -0.894000000
C    -0.038000000     0.801000000    -1.033000000
H    -0.039000000     1.175000000    -2.054000000
C     1.108000000     0.126000000    -0.563000000
H     1.961000000    -0.010000000    -1.172000000
C     0.969000000    -0.665000000     0.564000000
H     1.804000000    -1.252000000     0.938000000
C    -0.176000000    -0.563000000     1.355000000
H    -0.231000000    -1.124000000     2.285000000
C    -1.327000000     0.038000000     0.910000000
C    -2.710000000    -0.085000000     1.558000000
O    -3.670000000     0.392000000     1.104000000
O    -2.798000000    -0.710000000     2.561000000
O     4.576000000     3.273000000     1.339000000
H     5.017000000     2.442000000     1.516000000
H     4.084000000     3.116000000     0.533000000
O     3.600000000    -0.602000000     4.051000000
H     2.691000000    -0.310000000     3.983000000
H     3.586000000    -1.504000000     3.732000000
O    -3.410000000     1.032000000    -3.634000000
H    -4.186000000     1.337000000    -4.104000000
H    -3.713000000     0.270000000    -3.140000000
O    -1.969000000     3.343000000    -3.642000000
H    -2.623000000     2.644000000    -3.649000000
H    -1.177000000     2.933000000    -3.990000000
O     1.272000000     0.950000000     3.821000000
H     0.900000000     1.247000000     2.991000000
H     0.511000000     0.724000000     4.357000000
O    -2.702000000     2.418000000    -6.571000000
H    -2.885000000     1.903000000    -5.785000000
H    -3.164000000     3.244000000    -6.430000000
O    -1.506000000     4.176000000     4.801000000
H    -1.725000000     3.766000000     3.964000000
H    -1.340000000     5.093000000     4.582000000
O    -3.696000000     0.007000000     5.088000000
H    -4.475000000    -0.543000000     5.169000000
H    -3.343000000    -0.203000000     4.223000000
O    -1.420000000     4.124000000    -0.981000000
H    -2.150000000     3.777000000    -0.469000000
H    -1.599000000     3.839000000    -1.877000000
O    -2.727000000    -3.111000000     3.937000000
H    -2.714000000    -3.682000000     3.169000000
H    -2.828000000    -2.229000000     3.578000000
O    -0.818000000     0.530000000     5.488000000
H    -0.721000000    -0.207000000     6.091000000
H    -1.759000000     0.586000000     5.327000000
O     6.158000000    -2.011000000     1.433000000
H     5.523000000    -2.715000000     1.561000000
H     6.755000000    -2.345000000     0.764000000
O    -6.549000000    -3.853000000     1.469000000
H    -5.940000000    -3.117000000     1.410000000
H    -6.935000000    -3.775000000     2.341000000
O     1.068000000     5.296000000    -0.434000000
H     0.372000000     4.644000000    -0.526000000
H     0.861000000     5.961000000    -1.091000000
O    -5.291000000     1.382000000     6.748000000
H    -4.954000000     1.970000000     7.423000000
H    -4.553000000     1.253000000     6.152000000
O    -6.094000000    -0.916000000     4.484000000
H    -6.725000000    -1.465000000     4.018000000
H    -6.556000000    -0.091000000     4.629000000
O     6.863000000     1.281000000    -2.307000000
H     6.365000000     0.580000000    -1.888000000
H     6.315000000     2.059000000    -2.205000000
O    -3.747000000     3.154000000    -0.165000000
H    -3.916000000     2.297000000     0.227000000
H    -4.443000000     3.261000000    -0.814000000
O     0.373000000     2.776000000     1.677000000
H    -0.065000000     2.540000000     0.860000000
H     0.225000000     3.718000000     1.765000000
O    -3.086000000     5.501000000     1.641000000
H    -3.198000000     5.537000000     0.691000000
H    -2.912000000     4.579000000     1.828000000
O     3.411000000     2.466000000    -1.079000000
H     2.735000000     2.025000000    -0.565000000
H     3.130000000     2.358000000    -1.987000000
O     2.732000000    -3.688000000     4.580000000
H     1.851000000    -3.314000000     4.606000000
H     2.742000000    -4.327000000     5.293000000
O    -0.552000000    -0.583000000    -6.342000000
H     0.170000000    -1.138000000    -6.636000000
H    -0.638000000     0.081000000    -7.025000000
O     3.524000000    -0.501000000    -4.037000000
H     4.037000000    -0.966000000    -3.377000000
H     2.862000000    -1.134000000    -4.316000000
O     4.062000000     4.493000000    -4.001000000
H     3.250000000     5.000000000    -3.983000000
H     3.785000000     3.592000000    -3.837000000
O    -0.183000000     1.911000000    -5.053000000
H    -0.440000000     1.034000000    -5.339000000
H    -0.268000000     2.453000000    -5.837000000
O     5.851000000    -2.654000000    -3.347000000
H     5.717000000    -3.484000000    -2.889000000
H     6.179000000    -2.907000000    -4.210000000
O    -4.006000000    -4.970000000     1.905000000
H    -3.931000000    -4.323000000     1.204000000
H    -4.919000000    -5.253000000     1.873000000
O    -4.909000000    -3.244000000     5.569000000
H    -5.253000000    -2.534000000     5.028000000
H    -4.015000000    -3.376000000     5.252000000
O    -6.110000000     3.174000000    -1.884000000
H    -6.701000000     3.524000000    -1.217000000
H    -6.009000000     3.889000000    -2.513000000
O     2.359000000     1.924000000    -3.605000000
H     1.479000000     2.082000000    -3.946000000
H     2.658000000     1.142000000    -4.069000000
O     5.085000000    -4.140000000    -1.283000000
H     4.158000000    -4.111000000    -1.518000000
H     5.100000000    -4.530000000    -0.410000000
O     0.157000000    -5.213000000    -0.096000000
H     0.501000000    -5.179000000     0.797000000
H     0.800000000    -4.735000000    -0.619000000
O     1.556000000    -2.246000000    -4.080000000
H     0.791000000    -1.891000000    -3.626000000
H     1.210000000    -2.971000000    -4.600000000
O     0.459000000    -4.830000000     2.832000000
H    -0.347000000    -5.327000000     2.975000000
H     0.338000000    -4.026000000     3.339000000
O    -3.227000000    -2.069000000    -1.605000000
H    -3.458000000    -1.897000000    -2.518000000
H    -2.957000000    -2.987000000    -1.595000000
O     2.331000000    -4.251000000    -2.259000000
H     1.871000000    -4.857000000    -2.840000000
H     2.053000000    -3.383000000    -2.551000000
O    -8.587000000     0.539000000     0.671000000
H    -7.719000000     0.787000000     0.989000000
H    -8.518000000    -0.399000000     0.492000000
O     6.256000000     0.847000000     1.290000000
H     5.952000000    -0.024000000     1.034000000
H     7.094000000     0.949000000     0.839000000
O     4.351000000    -4.220000000     2.637000000
H     3.997000000    -5.088000000     2.444000000
H     3.785000000    -3.879000000     3.330000000
O    -0.459000000    -2.372000000    -2.394000000
H    -1.193000000    -1.974000000    -2.863000000
H    -0.760000000    -2.437000000    -1.488000000
O    -2.390000000     2.644000000     2.690000000
H    -1.628000000     2.289000000     2.232000000
H    -2.926000000     1.878000000     2.893000000
O    -4.935000000    -1.793000000     0.704000000
H    -4.574000000    -1.680000000    -0.175000000
H    -4.573000000    -1.064000000     1.208000000
O    -2.395000000    -1.481000000    -4.494000000
H    -3.058000000    -1.596000000    -5.175000000
H    -1.595000000    -1.266000000    -4.973000000
O     4.255000000     0.407000000    -7.138000000
H     4.193000000     0.248000000    -6.196000000
H     5.075000000     0.888000000    -7.246000000
O     0.157000000    -2.923000000     5.011000000
H    -0.776000000    -2.937000000     4.796000000
H     0.200000000    -3.244000000     5.912000000
O     5.341000000    -1.074000000    -1.201000000
H     4.977000000    -1.732000000    -0.608000000
H     5.649000000    -1.576000000    -1.956000000
O    -6.012000000     1.486000000     1.566000000
H    -5.691000000     2.341000000     1.277000000
H    -5.334000000     0.870000000     1.289000000
