158
-3054.56507
C    -0.801000000     1.167000000    -0.520000000
H    -1.427000000     1.925000000    -0.983000000
C     0.070000000     0.457000000    -1.281000000
H     0.159000000     0.665000000    -2.345000000
C     0.817000000    -0.628000000    -0.712000000
H     1.522000000    -1.207000000    -1.344000000
C     0.641000000    -0.932000000     0.629000000
H     1.151000000    -1.816000000     1.003000000
C    -0.180000000    -0.171000000     1.449000000
H    -0.324000000    -0.508000000     2.473000000
C    -0.908000000     0.927000000     0.897000000
C    -1.914000000     1.662000000     1.783000000
O    -2.520000000     2.609000000     1.385000000
O    -2.039000000     1.345000000     2.920000000
O     2.318000000    -4.826000000    -0.563000000
H     2.726000000    -4.107000000    -0.080000000
H     2.625000000    -5.617000000    -0.120000000
O     4.025000000    -2.688000000     0.112000000
H     4.627000000    -2.244000000    -0.484000000
H     4.188000000    -2.282000000     0.964000000
O     0.738000000    -5.603000000    -4.859000000
H     0.706000000    -6.231000000    -5.581000000
H     1.220000000    -6.058000000    -4.168000000
O    -1.394000000     2.752000000    -5.112000000
H    -2.052000000     2.063000000    -5.198000000
H    -0.580000000     2.284000000    -4.929000000
O     0.212000000    -3.264000000     4.858000000
H    -0.530000000    -2.720000000     5.122000000
H    -0.154000000    -4.145000000     4.776000000
O    -6.035000000    -0.704000000     5.089000000
H    -6.508000000    -0.939000000     4.291000000
H    -5.569000000     0.101000000     4.864000000
O     0.028000000     4.015000000     7.110000000
H    -0.084000000     3.379000000     6.403000000
H     0.813000000     4.506000000     6.867000000
O    -6.545000000    -0.968000000     2.498000000
H    -5.760000000    -1.244000000     2.025000000
H    -6.987000000    -0.367000000     1.899000000
O    -2.336000000     5.242000000     1.767000000
H    -2.524000000     4.308000000     1.677000000
H    -2.616000000     5.624000000     0.935000000
O    -4.003000000    -1.026000000     0.323000000
H    -3.447000000    -1.406000000    -0.357000000
H    -4.239000000    -0.162000000    -0.016000000
O    -1.722000000    -1.559000000     5.561000000
H    -2.287000000    -1.714000000     6.318000000
H    -2.329000000    -1.388000000     4.840000000
O     0.879000000     5.775000000    -1.684000000
H     0.713000000     4.951000000    -1.227000000
H     1.800000000     5.725000000    -1.940000000
O     7.370000000    -2.317000000     0.608000000
H     7.909000000    -3.107000000     0.642000000
H     7.054000000    -2.281000000    -0.295000000
O     3.407000000    -4.913000000    -3.250000000
H     3.126000000    -4.746000000    -2.350000000
H     2.953000000    -4.250000000    -3.769000000
O    -4.359000000     1.377000000     4.487000000
H    -3.490000000     1.204000000     4.125000000
H    -4.631000000     2.198000000     4.075000000
O    -1.944000000    -2.077000000    -1.306000000
H    -1.634000000    -2.983000000    -1.312000000
H    -1.178000000    -1.565000000    -1.047000000
O     3.005000000     0.010000000     5.713000000
H     2.166000000     0.228000000     6.119000000
H     2.789000000    -0.651000000     5.056000000
O     2.604000000     1.616000000    -2.816000000
H     2.514000000     1.927000000    -1.916000000
H     3.178000000     2.257000000    -3.235000000
O    -4.444000000     1.739000000    -0.261000000
H    -3.879000000     2.070000000     0.437000000
H    -4.286000000     2.330000000    -0.997000000
O     0.051000000     4.056000000     0.300000000
H     0.278000000     4.888000000     0.716000000
H    -0.772000000     3.798000000     0.715000000
O     1.512000000    -2.807000000    -4.312000000
H     1.446000000    -3.695000000    -4.664000000
H     0.604000000    -2.514000000    -4.228000000
O    -1.319000000    -6.034000000     1.603000000
H    -2.220000000    -6.341000000     1.704000000
H    -1.348000000    -5.450000000     0.845000000
O    -3.776000000     6.228000000    -0.560000000
H    -4.272000000     5.748000000    -1.223000000
H    -3.697000000     7.114000000    -0.914000000
O    -3.121000000    -1.356000000     3.102000000
H    -3.470000000    -1.525000000     2.227000000
H    -2.628000000    -0.540000000     3.010000000
O     0.976000000     0.900000000    -4.848000000
H     1.761000000     0.879000000    -5.396000000
H     1.298000000     1.134000000    -3.977000000
O    -4.840000000     6.185000000     3.607000000
H    -5.305000000     5.975000000     4.416000000
H    -4.400000000     5.370000000     3.364000000
O    -1.488000000    -3.650000000    -5.016000000
H    -0.925000000    -4.416000000    -5.132000000
H    -2.302000000    -4.004000000    -4.658000000
O    -1.203000000    -1.476000000    -6.619000000
H    -1.164000000    -2.201000000    -5.995000000
H    -0.335000000    -1.459000000    -7.022000000
O     2.602000000    -2.104000000     3.963000000
H     3.188000000    -2.861000000     3.988000000
H     1.723000000    -2.480000000     4.021000000
O    -4.251000000     1.486000000     7.461000000
H    -4.568000000     0.741000000     7.972000000
H    -4.080000000     1.124000000     6.591000000
O     5.341000000     0.748000000    -0.183000000
H     4.534000000     0.264000000    -0.007000000
H     5.086000000     1.414000000    -0.822000000
O     1.423000000    -1.301000000    -7.420000000
H     1.546000000    -0.818000000    -8.238000000
H     1.642000000    -0.670000000    -6.734000000
O     3.466000000    -0.280000000     1.878000000
H     2.628000000    -0.122000000     1.444000000
H     3.245000000    -0.819000000     2.638000000
O    -0.629000000    -4.677000000    -1.067000000
H     0.304000000    -4.729000000    -0.858000000
H    -0.845000000    -5.540000000    -1.418000000
O     3.389000000    -0.938000000    -3.085000000
H     2.997000000    -0.069000000    -3.171000000
H     2.802000000    -1.515000000    -3.574000000
O    -1.228000000     6.202000000     4.087000000
H    -0.734000000     5.389000000     3.984000000
H    -1.756000000     6.264000000     3.290000000
O    -4.640000000     3.473000000     2.869000000
H    -3.823000000     3.266000000     2.416000000
H    -5.327000000     3.222000000     2.251000000
O    -5.189000000     4.535000000    -2.060000000
H    -4.865000000     4.601000000    -2.958000000
H    -5.707000000     3.731000000    -2.050000000
O    -0.334000000     2.518000000     4.614000000
H    -0.050000000     1.733000000     5.084000000
H    -0.952000000     2.194000000     3.958000000
O     3.264000000     0.894000000    -6.696000000
H     3.412000000     0.438000000    -7.524000000
H     4.105000000     0.846000000    -6.242000000
O     2.893000000     2.525000000    -0.132000000
H     3.521000000     2.970000000     0.436000000
H     2.076000000     2.524000000     0.368000000
O    -3.081000000     0.510000000    -5.136000000
H    -3.488000000    -0.101000000    -4.522000000
H    -2.537000000    -0.041000000    -5.698000000
O    -6.166000000     6.419000000     0.993000000
H    -5.973000000     6.449000000     1.930000000
H    -5.329000000     6.201000000     0.583000000
O     0.160000000     0.219000000     6.031000000
H    -0.575000000    -0.326000000     5.750000000
H    -0.027000000     0.420000000     6.948000000
O    -3.763000000    -1.121000000    -3.156000000
H    -2.987000000    -1.468000000    -2.715000000
H    -4.497000000    -1.576000000    -2.742000000
O     3.745000000     1.854000000     3.726000000
H     3.729000000     1.382000000     4.559000000
H     3.674000000     1.169000000     3.061000000
O     5.928000000    -2.038000000    -2.007000000
H     5.010000000    -1.817000000    -2.166000000
H     6.067000000    -2.851000000    -2.492000000
O    -6.565000000     2.265000000     1.380000000
H    -6.051000000     2.020000000     0.611000000
H    -7.449000000     2.406000000     1.043000000
