158
-3049.62616
C     0.385000000     1.400000000     0.120000000
H     0.964000000     2.310000000     0.258000000
C     0.963000000     0.485000000    -0.683000000
H     1.815000000     0.764000000    -1.297000000
C     0.502000000    -0.886000000    -0.759000000
H     1.012000000    -1.521000000    -1.453000000
C    -0.513000000    -1.236000000     0.134000000
H    -0.879000000    -2.258000000     0.074000000
C    -1.062000000    -0.335000000     1.026000000
H    -1.949000000    -0.566000000     1.609000000
C    -0.654000000     1.040000000     0.988000000
C    -1.292000000     2.076000000     1.858000000
O    -0.908000000     3.226000000     1.769000000
O    -2.195000000     1.823000000     2.638000000
O     3.119000000    -2.788000000     1.400000000
H     2.692000000    -2.181000000     0.796000000
H     2.397000000    -3.243000000     1.833000000
O     3.331000000     0.137000000     1.788000000
H     3.804000000     0.758000000     1.234000000
H     4.010000000    -0.264000000     2.330000000
O     3.394000000    -6.809000000     0.942000000
H     2.932000000    -6.191000000     0.377000000
H     2.708000000    -7.385000000     1.280000000
O     1.809000000    -3.556000000    -6.303000000
H     2.259000000    -2.711000000    -6.321000000
H     1.316000000    -3.581000000    -7.123000000
O    -1.396000000     2.742000000    -2.236000000
H    -1.647000000     2.435000000    -3.107000000
H    -0.514000000     3.095000000    -2.351000000
O     0.962000000    -0.380000000     3.441000000
H     1.518000000    -0.083000000     2.720000000
H     0.731000000    -1.280000000     3.211000000
O    -3.317000000     0.201000000     6.710000000
H    -2.578000000     0.308000000     6.112000000
H    -4.077000000     0.492000000     6.206000000
O    -6.256000000     1.190000000     5.509000000
H    -7.008000000     1.326000000     4.933000000
H    -5.508000000     1.516000000     5.008000000
O    -1.065000000     5.273000000    -0.144000000
H    -1.167000000     5.078000000     0.787000000
H    -1.548000000     4.577000000    -0.589000000
O    -3.372000000    -4.009000000    -0.919000000
H    -2.430000000    -4.177000000    -0.905000000
H    -3.528000000    -3.456000000    -0.153000000
O    -1.671000000     5.456000000     2.834000000
H    -1.456000000     4.575000000     2.529000000
H    -2.480000000     5.679000000     2.374000000
O    -0.897000000    -2.323000000     3.779000000
H    -0.699000000    -3.157000000     4.205000000
H    -1.449000000    -2.560000000     3.033000000
O     2.152000000     5.453000000     4.819000000
H     3.063000000     5.243000000     4.613000000
H     1.671000000     4.650000000     4.619000000
O     2.387000000     4.692000000     0.406000000
H     2.483000000     5.630000000     0.238000000
H     1.460000000     4.581000000     0.616000000
O    -4.836000000    -2.352000000     3.987000000
H    -4.929000000    -3.200000000     4.422000000
H    -5.684000000    -1.926000000     4.112000000
O     4.979000000    -3.593000000    -1.705000000
H     5.657000000    -3.000000000    -1.380000000
H     5.463000000    -4.294000000    -2.142000000
O    -1.303000000     0.620000000     4.925000000
H    -0.555000000     0.044000000     4.768000000
H    -1.595000000     0.877000000     4.050000000
O    -0.801000000    -4.588000000    -1.736000000
H    -1.221000000    -5.378000000    -2.075000000
H    -0.109000000    -4.394000000    -2.369000000
O     1.160000000     7.573000000     0.208000000
H     0.291000000     7.179000000     0.282000000
H     1.088000000     8.403000000     0.679000000
O     5.715000000    -3.536000000     1.436000000
H     6.192000000    -3.148000000     0.703000000
H     4.794000000    -3.361000000     1.242000000
O    -4.078000000     6.278000000     1.701000000
H    -4.778000000     6.807000000     2.085000000
H    -3.913000000     6.680000000     0.849000000
O    -3.690000000     3.510000000     0.681000000
H    -2.850000000     3.469000000     1.140000000
H    -3.986000000     2.600000000     0.644000000
O     1.566000000     3.107000000     3.406000000
H     1.209000000     3.455000000     2.589000000
H     0.960000000     2.408000000     3.653000000
O    -4.350000000    -1.441000000     0.293000000
H    -4.298000000    -1.146000000    -0.616000000
H    -4.397000000    -0.633000000     0.804000000
O     3.613000000    -2.178000000    -3.889000000
H     4.082000000    -2.166000000    -4.723000000
H     4.286000000    -2.372000000    -3.238000000
O    -1.444000000    -5.365000000     1.723000000
H    -1.944000000    -6.026000000     2.202000000
H    -1.967000000    -4.567000000     1.798000000
O     2.870000000     1.036000000    -6.379000000
H     3.378000000     0.315000000    -6.752000000
H     2.368000000     0.633000000    -5.670000000
O    -3.759000000    -2.924000000    -3.272000000
H    -3.716000000    -3.410000000    -2.449000000
H    -3.639000000    -3.589000000    -3.950000000
O    -3.073000000    -3.148000000     2.019000000
H    -3.606000000    -2.992000000     2.798000000
H    -3.312000000    -2.442000000     1.419000000
O     5.597000000     2.153000000    -2.445000000
H     5.533000000     2.200000000    -3.399000000
H     4.751000000     2.473000000    -2.132000000
O     1.056000000    -0.848000000    -4.741000000
H     0.361000000    -0.707000000    -4.098000000
H     1.818000000    -1.100000000    -4.219000000
O    -6.136000000     3.500000000     2.114000000
H    -6.444000000     3.265000000     1.239000000
H    -5.232000000     3.785000000     1.981000000
O     0.790000000     7.141000000     3.212000000
H     1.369000000     6.670000000     3.812000000
H    -0.032000000     6.652000000     3.239000000
O     1.282000000    -3.875000000    -3.423000000
H     2.130000000    -3.442000000    -3.331000000
H     1.099000000    -3.849000000    -4.362000000
O    -1.901000000     5.823000000     5.416000000
H    -1.800000000     5.650000000     4.480000000
H    -1.276000000     5.234000000     5.838000000
O     0.008000000    -7.138000000     0.279000000
H    -0.180000000    -6.216000000     0.101000000
H    -0.816000000    -7.491000000     0.613000000
O    -3.719000000     2.580000000     4.863000000
H    -3.254000000     2.539000000     4.027000000
H    -3.359000000     3.352000000     5.300000000
O     1.374000000     4.138000000    -3.556000000
H     1.203000000     3.948000000    -4.478000000
H     1.620000000     5.063000000    -3.544000000
O     1.778000000    -7.489000000    -1.858000000
H     2.311000000    -6.717000000    -1.672000000
H     1.200000000    -7.569000000    -1.099000000
O     4.338000000     2.719000000     3.048000000
H     3.394000000     2.776000000     3.198000000
H     4.542000000     3.488000000     2.515000000
O    -3.515000000     0.944000000    -1.259000000
H    -3.041000000     1.776000000    -1.241000000
H    -4.420000000     1.187000000    -1.454000000
O     2.617000000    -5.043000000    -1.158000000
H     2.169000000    -4.545000000    -1.841000000
H     3.525000000    -4.743000000    -1.199000000
O     1.267000000    -4.230000000     2.909000000
H     1.300000000    -4.394000000     3.852000000
H     0.404000000    -4.548000000     2.642000000
O    -1.063000000     3.243000000     5.908000000
H    -0.113000000     3.263000000     6.024000000
H    -1.245000000     2.365000000     5.572000000
O     3.210000000     3.010000000    -1.768000000
H     2.579000000     3.126000000    -2.478000000
H     2.833000000     3.490000000    -1.031000000
O    -5.281000000     4.700000000    -0.949000000
H    -4.509000000     4.464000000    -0.435000000
H    -5.578000000     3.873000000    -1.328000000
O    -1.271000000    -1.394000000    -3.214000000
H    -2.198000000    -1.624000000    -3.287000000
H    -1.053000000    -1.572000000    -2.299000000
O    -4.277000000     0.643000000     2.065000000
H    -4.477000000     0.058000000     2.797000000
H    -3.421000000     1.013000000     2.281000000
