158
-3075.62070
C    -0.036000000    -0.750000000     1.308000000
H    -0.169000000    -1.215000000     2.281000000
C    -0.949000000    -0.961000000     0.243000000
H    -1.674000000    -1.762000000     0.363000000
C    -0.741000000    -0.235000000    -0.927000000
H    -1.401000000    -0.488000000    -1.826000000
C     0.261000000     0.742000000    -1.057000000
H     0.252000000     1.369000000    -1.945000000
C     1.096000000     0.961000000    -0.002000000
H     1.851000000     1.739000000    -0.076000000
C     1.013000000     0.209000000     1.161000000
C     1.979000000     0.418000000     2.352000000
O     3.010000000     1.085000000     2.208000000
O     1.753000000    -0.103000000     3.399000000
O    -6.236000000    -0.514000000     1.575000000
H    -5.853000000    -1.288000000     1.988000000
H    -6.516000000    -0.818000000     0.711000000
O    -3.431000000     1.058000000     5.770000000
H    -2.590000000     0.781000000     6.134000000
H    -3.479000000     0.619000000     4.920000000
O    -6.719000000    -1.245000000    -1.040000000
H    -6.049000000    -1.461000000    -1.688000000
H    -7.517000000    -1.119000000    -1.553000000
O    -1.102000000    -3.653000000    -3.107000000
H    -0.963000000    -2.826000000    -3.568000000
H    -0.241000000    -4.069000000    -3.096000000
O     2.469000000    -3.683000000     2.190000000
H     2.005000000    -4.510000000     2.061000000
H     2.071000000    -3.305000000     2.974000000
O    -3.082000000    -0.553000000     3.583000000
H    -3.585000000    -1.350000000     3.413000000
H    -3.058000000    -0.101000000     2.740000000
O    -4.257000000     1.534000000     1.318000000
H    -4.754000000     0.717000000     1.276000000
H    -4.796000000     2.166000000     0.844000000
O    -0.830000000    -0.228000000     6.837000000
H    -0.897000000    -0.210000000     7.791000000
H    -0.184000000     0.447000000     6.628000000
O    -4.259000000    -2.888000000     2.359000000
H    -4.648000000    -3.719000000     2.631000000
H    -4.329000000    -2.892000000     1.404000000
O     3.658000000    -0.349000000     5.129000000
H     2.831000000    -0.249000000     4.658000000
H     4.215000000     0.349000000     4.786000000
O     4.642000000    -0.228000000    -3.631000000
H     5.315000000    -0.041000000    -2.977000000
H     3.841000000    -0.352000000    -3.122000000
O     1.441000000    -5.370000000     4.142000000
H     1.128000000    -5.885000000     4.885000000
H     1.776000000    -4.563000000     4.533000000
O    -4.816000000    -1.772000000    -2.743000000
H    -4.704000000    -2.310000000    -3.527000000
H    -4.240000000    -1.021000000    -2.884000000
O    -0.974000000    -3.302000000    -6.701000000
H    -1.549000000    -4.027000000    -6.458000000
H    -1.068000000    -2.673000000    -5.985000000
O     2.631000000     1.750000000    -3.554000000
H     3.522000000     1.716000000    -3.206000000
H     2.280000000     2.582000000    -3.235000000
O     3.827000000     2.201000000     6.357000000
H     3.776000000     3.147000000     6.220000000
H     4.746000000     2.040000000     6.572000000
O     1.474000000    -0.715000000    -4.278000000
H     1.879000000     0.146000000    -4.174000000
H     1.864000000    -1.069000000    -5.077000000
O     1.432000000     4.379000000    -2.890000000
H     2.061000000     5.027000000    -3.209000000
H     1.554000000     4.374000000    -1.941000000
O    -2.483000000    -5.172000000    -1.142000000
H    -2.819000000    -6.010000000    -1.461000000
H    -2.095000000    -4.760000000    -1.914000000
O     4.392000000     5.100000000    -1.057000000
H     3.485000000     5.080000000    -0.753000000
H     4.545000000     6.015000000    -1.293000000
O     0.933000000    -2.525000000     4.425000000
H    -0.019000000    -2.538000000     4.321000000
H     1.183000000    -1.623000000     4.223000000
O     4.231000000    -1.808000000     0.373000000
H     3.560000000    -2.057000000     1.008000000
H     3.773000000    -1.794000000    -0.467000000
O    -4.347000000     2.806000000    -4.912000000
H    -4.074000000     3.167000000    -4.069000000
H    -3.553000000     2.820000000    -5.447000000
O     4.505000000     0.882000000     0.031000000
H     4.768000000    -0.003000000     0.281000000
H     3.807000000     1.107000000     0.647000000
O     2.383000000    -1.615000000    -1.585000000
H     2.058000000    -1.558000000    -2.483000000
H     1.762000000    -1.098000000    -1.072000000
O     3.945000000     5.029000000     5.162000000
H     4.265000000     5.862000000     4.815000000
H     3.740000000     4.510000000     4.384000000
O    -3.914000000    -3.530000000    -4.767000000
H    -3.014000000    -3.214000000    -4.686000000
H    -3.826000000    -4.473000000    -4.904000000
O     2.067000000     5.920000000     0.258000000
H     1.128000000     6.106000000     0.243000000
H     2.425000000     6.547000000     0.886000000
O    -2.173000000     3.284000000     0.565000000
H    -2.132000000     3.290000000    -0.392000000
H    -2.597000000     2.453000000     0.780000000
O     3.007000000     3.854000000     2.517000000
H     2.811000000     2.920000000     2.588000000
H     2.281000000     4.213000000     2.008000000
O     4.939000000     2.443000000    -2.088000000
H     5.039000000     1.843000000    -1.349000000
H     5.033000000     3.314000000    -1.705000000
O     2.719000000    -3.096000000     6.419000000
H     2.013000000    -2.871000000     5.813000000
H     3.521000000    -2.943000000     5.918000000
O    -3.858000000     2.918000000    -2.186000000
H    -3.713000000     3.839000000    -1.968000000
H    -4.460000000     2.605000000    -1.511000000
O    -3.111000000     0.238000000    -3.529000000
H    -3.143000000     0.985000000    -2.931000000
H    -3.015000000     0.630000000    -4.397000000
O     5.308000000     1.927000000     2.862000000
H     5.449000000     2.599000000     2.195000000
H     4.370000000     1.739000000     2.818000000
O    -0.628000000     3.235000000     4.413000000
H    -0.117000000     2.585000000     4.894000000
H    -1.353000000     3.452000000     4.999000000
O     1.645000000    -4.487000000    -2.402000000
H     1.954000000    -3.795000000    -1.817000000
H     2.258000000    -4.472000000    -3.137000000
O    -0.012000000     4.252000000     2.193000000
H    -0.669000000     3.871000000     1.611000000
H    -0.160000000     3.823000000     3.035000000
O    -1.673000000    -2.254000000     5.253000000
H    -2.290000000    -1.661000000     4.825000000
H    -1.312000000    -1.743000000     5.977000000
O    -0.979000000    -1.421000000    -4.766000000
H    -1.465000000    -0.773000000    -4.255000000
H    -0.060000000    -1.245000000    -4.565000000
O     7.317000000     0.784000000     4.268000000
H     7.634000000     1.565000000     4.722000000
H     6.607000000     1.103000000     3.712000000
O     1.230000000     1.483000000     5.615000000
H     2.036000000     1.721000000     6.073000000
H     1.528000000     1.114000000     4.783000000
O    -4.228000000    -3.511000000    -0.209000000
H    -4.511000000    -3.490000000    -1.123000000
H    -3.394000000    -3.980000000    -0.227000000
O     4.806000000    -2.719000000     4.597000000
H     4.307000000    -1.903000000     4.623000000
H     5.660000000    -2.489000000     4.963000000
O    -1.857000000     2.370000000    -6.035000000
H    -1.238000000     1.669000000    -6.240000000
H    -1.486000000     3.147000000    -6.452000000
O     3.071000000     2.022000000    -6.493000000
H     2.297000000     1.549000000    -6.798000000
H     3.029000000     1.963000000    -5.539000000
O     1.999000000    -0.402000000     7.693000000
H     1.439000000    -1.067000000     7.292000000
H     2.634000000    -0.181000000     7.012000000
O     0.174000000    -4.868000000     0.437000000
H    -0.028000000    -3.932000000     0.430000000
H    -0.184000000    -5.197000000    -0.387000000
