158
-3030.25770
C     0.742000000     0.818000000    -1.025000000
H     1.370000000     1.279000000    -1.783000000
C     0.975000000    -0.542000000    -0.726000000
H     1.656000000    -1.167000000    -1.298000000
C     0.202000000    -1.200000000     0.194000000
H     0.354000000    -2.211000000     0.326000000
C    -0.735000000    -0.462000000     0.924000000
H    -1.376000000    -0.982000000     1.631000000
C    -0.996000000     0.869000000     0.664000000
H    -1.765000000     1.424000000     1.195000000
C    -0.205000000     1.539000000    -0.249000000
C    -0.546000000     3.013000000    -0.474000000
O    -0.008000000     3.471000000    -1.472000000
O    -1.362000000     3.671000000     0.146000000
O    -0.473000000    -6.188000000     3.200000000
H    -1.305000000    -5.926000000     3.595000000
H     0.147000000    -5.513000000     3.477000000
O     2.126000000    -4.082000000    -1.562000000
H     2.736000000    -3.575000000    -1.026000000
H     2.132000000    -4.955000000    -1.170000000
O     2.372000000     0.639000000     1.729000000
H     1.674000000     0.437000000     1.105000000
H     2.189000000     0.078000000     2.482000000
O     1.357000000     2.537000000     3.561000000
H     1.863000000     3.126000000     3.000000000
H     1.333000000     1.711000000     3.079000000
O    -1.861000000    -2.901000000    -4.289000000
H    -1.951000000    -2.531000000    -5.167000000
H    -0.980000000    -2.650000000    -4.012000000
O     3.811000000     4.315000000    -0.903000000
H     2.979000000     4.787000000    -0.920000000
H     4.474000000     5.000000000    -0.814000000
O     2.317000000    -4.616000000     2.983000000
H     2.645000000    -4.975000000     3.808000000
H     2.022000000    -3.733000000     3.207000000
O     0.255000000    -6.235000000    -3.396000000
H    -0.696000000    -6.182000000    -3.496000000
H     0.560000000    -5.336000000    -3.519000000
O     5.421000000    -4.170000000     0.529000000
H     4.907000000    -4.977000000     0.521000000
H     5.394000000    -3.859000000    -0.376000000
O     2.077000000     6.904000000     2.321000000
H     1.438000000     7.479000000     2.742000000
H     1.549000000     6.223000000     1.905000000
O    -3.620000000     3.489000000     1.402000000
H    -2.755000000     3.490000000     0.993000000
H    -3.768000000     2.576000000     1.648000000
O    -6.111000000     4.169000000     0.445000000
H    -5.251000000     3.764000000     0.556000000
H    -6.161000000     4.374000000    -0.488000000
O     0.288000000     4.184000000     5.556000000
H     1.115000000     4.545000000     5.235000000
H     0.031000000     3.547000000     4.890000000
O    -2.677000000    -7.095000000    -0.796000000
H    -2.444000000    -6.451000000    -1.464000000
H    -1.916000000    -7.127000000    -0.217000000
O    -5.385000000     5.619000000     2.735000000
H    -5.958000000     6.122000000     2.156000000
H    -4.919000000     5.020000000     2.151000000
O    -2.654000000     4.492000000    -4.916000000
H    -2.623000000     4.297000000    -3.979000000
H    -1.938000000     5.111000000    -5.057000000
O     5.232000000    -3.134000000    -1.859000000
H     5.125000000    -2.278000000    -2.275000000
H     4.987000000    -3.762000000    -2.538000000
O    -3.135000000     0.848000000    -1.470000000
H    -2.789000000     1.365000000    -0.742000000
H    -3.299000000    -0.016000000    -1.094000000
O     5.115000000     2.450000000    -3.128000000
H     5.025000000     2.966000000    -2.327000000
H     5.664000000     2.987000000    -3.699000000
O    -1.805000000     1.269000000    -3.792000000
H    -2.693000000     1.464000000    -4.091000000
H    -1.928000000     0.730000000    -3.011000000
O    -1.965000000    -1.906000000     4.217000000
H    -1.664000000    -2.126000000     5.099000000
H    -1.517000000    -1.087000000     4.009000000
O     2.391000000    -7.753000000     1.786000000
H     1.645000000    -8.269000000     2.092000000
H     2.009000000    -7.112000000     1.186000000
O    -0.812000000     6.888000000    -4.181000000
H    -0.431000000     6.128000000    -3.740000000
H    -0.067000000     7.323000000    -4.595000000
O     3.085000000     3.224000000     1.534000000
H     2.863000000     2.347000000     1.222000000
H     3.485000000     3.653000000     0.778000000
O    -4.069000000    -1.651000000    -0.127000000
H    -3.946000000    -2.260000000    -0.854000000
H    -3.895000000    -2.174000000     0.656000000
O     5.481000000    -1.327000000     0.658000000
H     5.392000000    -2.276000000     0.747000000
H     4.582000000    -1.007000000     0.589000000
O    -3.660000000     3.217000000     5.487000000
H    -4.355000000     3.870000000     5.402000000
H    -4.025000000     2.426000000     5.092000000
O    -2.413000000    -5.206000000    -2.877000000
H    -3.354000000    -5.081000000    -2.751000000
H    -2.079000000    -4.331000000    -3.074000000
O    -0.768000000    -7.596000000     0.812000000
H    -0.563000000    -8.423000000     1.248000000
H    -0.833000000    -6.960000000     1.525000000
O     2.078000000    -0.922000000     3.979000000
H     1.798000000    -1.524000000     4.668000000
H     2.907000000    -0.562000000     4.298000000
O    -3.499000000    -3.227000000     2.163000000
H    -2.909000000    -3.008000000     2.884000000
H    -3.639000000    -4.170000000     2.245000000
O     2.796000000    -1.518000000    -4.029000000
H     2.552000000    -0.622000000    -4.259000000
H     3.653000000    -1.434000000    -3.610000000
O    -4.334000000     0.624000000     1.265000000
H    -4.910000000     0.549000000     2.026000000
H    -4.145000000    -0.281000000     1.018000000
O    -0.491000000     0.166000000     4.761000000
H     0.012000000     0.980000000     4.763000000
H    -1.177000000     0.306000000     5.414000000
O     0.557000000     2.077000000    -4.957000000
H    -0.293000000     2.019000000    -4.520000000
H     0.910000000     2.924000000    -4.683000000
O     1.505000000     5.732000000    -0.786000000
H     0.736000000     5.167000000    -0.859000000
H     1.221000000     6.571000000    -1.149000000
O    -2.188000000     6.743000000    -0.466000000
H    -1.742000000     7.485000000    -0.057000000
H    -1.790000000     5.972000000    -0.060000000
O     1.586000000    -6.784000000    -0.546000000
H     0.671000000    -7.064000000    -0.545000000
H     1.831000000    -6.771000000    -1.472000000
O     3.094000000     1.097000000    -4.694000000
H     3.740000000     1.747000000    -4.418000000
H     2.249000000     1.523000000    -4.550000000
O     0.790000000     4.536000000    -3.597000000
H     1.522000000     5.140000000    -3.470000000
H     0.548000000     4.264000000    -2.711000000
O    -0.560000000     5.157000000     2.283000000
H    -1.305000000     5.112000000     2.882000000
H    -0.849000000     4.678000000     1.506000000
O    -0.225000000    -0.837000000    -5.539000000
H     0.337000000    -1.366000000    -4.972000000
H    -0.544000000    -0.136000000    -4.972000000
O    -2.536000000     4.870000000    -2.173000000
H    -1.878000000     4.366000000    -1.695000000
H    -2.449000000     5.761000000    -1.833000000
O     5.242000000    -0.684000000    -3.294000000
H     5.044000000     0.251000000    -3.354000000
H     6.145000000    -0.757000000    -3.601000000
O    -4.857000000     3.060000000    -2.169000000
H    -4.469000000     2.189000000    -2.081000000
H    -4.108000000     3.643000000    -2.294000000
O    -4.603000000     7.576000000    -1.267000000
H    -5.407000000     7.063000000    -1.350000000
H    -3.983000000     6.984000000    -0.842000000
O    -3.996000000     0.661000000     4.871000000
H    -4.780000000     0.263000000     5.249000000
H    -3.403000000    -0.076000000     4.719000000
O     0.905000000    -3.373000000    -3.749000000
H     0.985000000    -3.623000000    -2.829000000
H     1.603000000    -2.732000000    -3.885000000
