158
-3043.28757
C     0.504000000     1.199000000    -0.741000000
H     1.090000000     1.992000000    -1.199000000
C     1.085000000    -0.077000000    -0.807000000
H     1.981000000    -0.313000000    -1.375000000
C     0.428000000    -1.131000000    -0.182000000
H     0.766000000    -2.178000000    -0.319000000
C    -0.739000000    -0.972000000     0.515000000
H    -1.233000000    -1.795000000     1.024000000
C    -1.183000000     0.385000000     0.794000000
H    -2.002000000     0.582000000     1.481000000
C    -0.592000000     1.452000000     0.113000000
C    -1.089000000     2.849000000     0.292000000
O    -0.705000000     3.750000000    -0.417000000
O    -1.899000000     3.198000000     1.124000000
O     3.654000000    -5.444000000    -2.469000000
H     4.318000000    -6.115000000    -2.625000000
H     2.987000000    -5.885000000    -1.943000000
O     1.504000000    -6.021000000    -0.370000000
H     1.404000000    -5.487000000     0.418000000
H     2.310000000    -6.515000000    -0.225000000
O     1.204000000    -4.624000000     2.051000000
H     0.333000000    -4.391000000     2.372000000
H     1.803000000    -4.101000000     2.583000000
O    -0.228000000     0.796000000     3.610000000
H     0.678000000     1.062000000     3.452000000
H    -0.610000000     0.716000000     2.735000000
O    -2.973000000    -5.668000000    -3.661000000
H    -3.016000000    -5.361000000    -4.567000000
H    -2.038000000    -5.688000000    -3.459000000
O     2.677000000     3.629000000     1.761000000
H     2.191000000     3.889000000     0.978000000
H     3.578000000     3.901000000     1.584000000
O     3.373000000    -4.838000000     4.923000000
H     3.048000000    -5.019000000     5.805000000
H     2.882000000    -4.067000000     4.640000000
O    -1.074000000    -8.005000000    -1.133000000
H    -0.420000000    -8.632000000    -0.824000000
H    -0.561000000    -7.298000000    -1.524000000
O    -4.911000000     0.716000000     1.214000000
H    -5.508000000     1.396000000     1.526000000
H    -4.480000000     0.393000000     2.005000000
O     6.093000000    -5.328000000    -0.395000000
H     5.185000000    -5.606000000    -0.271000000
H     6.029000000    -4.406000000    -0.644000000
O    -3.407000000     3.388000000     3.195000000
H    -2.881000000     3.395000000     2.395000000
H    -3.279000000     2.512000000     3.558000000
O    -4.042000000     4.848000000     0.391000000
H    -3.734000000     3.956000000     0.551000000
H    -3.343000000     5.253000000    -0.123000000
O    -5.688000000     4.612000000     3.936000000
H    -5.784000000     5.487000000     3.560000000
H    -4.750000000     4.430000000     3.883000000
O    -2.877000000     6.213000000     3.360000000
H    -1.998000000     5.901000000     3.146000000
H    -3.423000000     5.427000000     3.335000000
O    -1.596000000     5.892000000    -3.416000000
H    -1.933000000     5.790000000    -2.526000000
H    -0.789000000     6.396000000    -3.310000000
O    -2.073000000    -2.415000000    -4.513000000
H    -1.128000000    -2.524000000    -4.408000000
H    -2.439000000    -2.673000000    -3.668000000
O    -2.481000000    -2.219000000    -1.551000000
H    -1.760000000    -1.788000000    -1.092000000
H    -3.265000000    -1.764000000    -1.245000000
O     6.285000000     0.017000000    -1.397000000
H     5.767000000     0.395000000    -0.686000000
H     6.539000000     0.768000000    -1.934000000
O     0.167000000     1.421000000    -4.689000000
H    -0.621000000     0.879000000    -4.732000000
H    -0.078000000     2.155000000    -4.126000000
O    -1.568000000    -4.265000000     3.131000000
H    -1.837000000    -4.840000000     3.848000000
H    -2.067000000    -4.575000000     2.375000000
O     1.166000000     6.243000000    -3.422000000
H     2.122000000     6.212000000    -3.473000000
H     0.871000000     5.610000000    -4.076000000
O     2.289000000     0.918000000     2.319000000
H     3.139000000     0.502000000     2.171000000
H     2.448000000     1.849000000     2.168000000
O    -4.171000000    -4.247000000    -0.281000000
H    -3.506000000    -3.828000000    -0.828000000
H    -3.763000000    -5.062000000     0.010000000
O     4.263000000    -3.049000000     0.430000000
H     3.799000000    -2.221000000     0.557000000
H     3.574000000    -3.714000000     0.442000000
O    -3.912000000     0.185000000     4.066000000
H    -3.572000000     0.662000000     4.823000000
H    -3.722000000    -0.734000000     4.257000000
O    -2.848000000     8.150000000     1.205000000
H    -2.923000000     7.331000000     1.694000000
H    -3.714000000     8.552000000     1.277000000
O     2.071000000    -2.555000000     4.201000000
H     1.137000000    -2.542000000     4.412000000
H     2.219000000    -1.739000000     3.722000000
O     3.254000000    -2.655000000    -2.824000000
H     3.831000000    -2.153000000    -3.400000000
H     3.565000000    -3.557000000    -2.901000000
O    -0.073000000     3.345000000     5.088000000
H    -0.571000000     3.609000000     5.861000000
H    -0.453000000     2.504000000     4.834000000
O    -5.080000000    -3.068000000     2.495000000
H    -5.582000000    -3.816000000     2.817000000
H    -4.396000000    -3.455000000     1.948000000
O    -0.486000000    -2.200000000     5.473000000
H    -0.855000000    -2.568000000     6.276000000
H    -1.066000000    -1.471000000     5.255000000
O     5.751000000     2.337000000    -3.183000000
H     5.360000000     2.432000000    -2.315000000
H     5.150000000     2.798000000    -3.768000000
O     2.901000000     1.712000000    -4.290000000
H     2.003000000     1.399000000    -4.398000000
H     2.924000000     2.544000000    -4.763000000
O     1.717000000     4.480000000    -0.902000000
H     0.834000000     4.128000000    -0.797000000
H     1.616000000     5.199000000    -1.526000000
O     0.249000000     7.446000000     1.600000000
H     0.217000000     6.532000000     1.884000000
H    -0.653000000     7.755000000     1.685000000
O    -1.885000000     6.039000000    -0.729000000
H    -1.304000000     6.799000000    -0.685000000
H    -1.328000000     5.297000000    -0.495000000
O     4.926000000    -0.670000000    -4.150000000
H     5.347000000    -0.538000000    -3.301000000
H     4.392000000     0.114000000    -4.277000000
O     4.466000000     2.126000000    -0.679000000
H     4.381000000     2.695000000     0.086000000
H     3.567000000     1.999000000    -0.983000000
O    -6.290000000     2.273000000    -1.241000000
H    -5.377000000     2.030000000    -1.085000000
H    -6.239000000     3.049000000    -1.798000000
O    -0.496000000     5.080000000     2.788000000
H    -0.302000000     4.540000000     3.554000000
H    -0.911000000     4.479000000     2.170000000
O     0.521000000    -2.628000000    -3.049000000
H     1.403000000    -2.384000000    -3.330000000
H     0.306000000    -1.998000000    -2.361000000
O    -0.906000000     3.151000000    -3.058000000
H    -0.749000000     3.279000000    -2.123000000
H    -0.797000000     4.021000000    -3.441000000
O     4.989000000     0.225000000     1.707000000
H     4.967000000     1.046000000     1.216000000
H     5.653000000     0.367000000     2.382000000
O    -3.783000000     2.884000000    -2.582000000
H    -3.998000000     2.795000000    -3.511000000
H    -2.827000000     2.858000000    -2.555000000
O    -6.144000000     5.838000000     1.503000000
H    -6.760000000     5.838000000     0.771000000
H    -5.421000000     5.285000000     1.208000000
O    -3.395000000    -2.344000000     4.569000000
H    -2.847000000    -3.103000000     4.370000000
H    -4.127000000    -2.410000000     3.955000000
O    -0.176000000    -5.342000000    -2.713000000
H     0.419000000    -5.627000000    -2.020000000
H    -0.038000000    -4.397000000    -2.774000000
O    -4.659000000    -0.849000000    -0.939000000
H    -5.603000000    -0.963000000    -1.051000000
H    -4.577000000    -0.210000000    -0.230000000
