158
-3014.26138
C     0.504000000     0.603000000    -1.250000000
H     0.645000000     1.030000000    -2.239000000
C    -0.328000000    -0.538000000    -1.203000000
H    -0.582000000    -0.950000000    -2.176000000
C    -0.710000000    -1.059000000     0.085000000
H    -1.375000000    -1.904000000     0.044000000
C    -0.194000000    -0.435000000     1.248000000
H    -0.470000000    -0.914000000     2.185000000
C     0.727000000     0.639000000     1.159000000
H     1.097000000     1.154000000     2.043000000
C     1.000000000     1.274000000    -0.093000000
C     1.734000000     2.582000000    -0.165000000
O     2.191000000     2.910000000    -1.201000000
O     1.840000000     3.372000000     0.742000000
O     3.437000000    -2.192000000    -3.276000000
H     3.184000000    -1.832000000    -2.426000000
H     4.165000000    -1.640000000    -3.562000000
O     2.916000000    -1.465000000    -0.702000000
H     2.758000000    -1.931000000     0.119000000
H     2.126000000    -0.942000000    -0.837000000
O     5.091000000     2.084000000     4.901000000
H     4.980000000     1.541000000     4.120000000
H     4.263000000     1.995000000     5.373000000
O     5.230000000     2.646000000    -4.966000000
H     4.374000000     2.402000000    -4.615000000
H     5.045000000     3.364000000    -5.571000000
O     2.279000000    -5.051000000    -0.986000000
H     3.192000000    -5.014000000    -0.703000000
H     2.313000000    -4.880000000    -1.927000000
O    -5.276000000    -0.262000000    -1.948000000
H    -4.679000000    -0.342000000    -1.204000000
H    -4.932000000     0.475000000    -2.453000000
O     1.674000000     6.100000000     0.435000000
H     1.560000000     5.263000000     0.886000000
H     2.357000000     5.931000000    -0.214000000
O    -0.909000000     4.025000000     0.629000000
H    -0.016000000     4.066000000     0.286000000
H    -0.825000000     3.560000000     1.461000000
O     6.043000000     5.428000000    -3.337000000
H     6.748000000     5.670000000    -2.736000000
H     5.243000000     5.716000000    -2.897000000
O    -3.710000000    -3.182000000     1.683000000
H    -3.232000000    -4.011000000     1.662000000
H    -4.580000000    -3.398000000     1.349000000
O    -2.199000000     3.722000000    -1.901000000
H    -1.951000000     3.955000000    -1.006000000
H    -2.370000000     2.781000000    -1.865000000
O    -3.456000000    -5.890000000     0.153000000
H    -4.248000000    -6.390000000     0.349000000
H    -3.670000000    -5.404000000    -0.643000000
O    -1.274000000    -3.032000000    -4.596000000
H    -1.148000000    -2.129000000    -4.888000000
H    -1.854000000    -2.961000000    -3.838000000
O    -2.948000000    -3.063000000    -2.272000000
H    -3.557000000    -3.795000000    -2.174000000
H    -3.252000000    -2.411000000    -1.640000000
O     6.070000000     1.416000000    -1.851000000
H     6.282000000     2.083000000    -1.198000000
H     5.871000000     0.633000000    -1.338000000
O     7.153000000     2.328000000     1.951000000
H     6.256000000     2.414000000     1.630000000
H     7.056000000     2.050000000     2.862000000
O    -1.284000000    -1.178000000     4.757000000
H    -0.407000000    -1.504000000     4.553000000
H    -1.441000000    -1.460000000     5.657000000
O     5.040000000     0.050000000     2.913000000
H     5.245000000     0.243000000     1.999000000
H     5.670000000    -0.626000000     3.162000000
O    -3.472000000    -0.613000000    -0.032000000
H    -3.498000000    -1.402000000     0.510000000
H    -2.550000000    -0.354000000    -0.034000000
O     4.634000000     2.067000000     0.774000000
H     4.194000000     1.993000000    -0.073000000
H     4.261000000     2.854000000     1.171000000
O     4.245000000     6.038000000     2.586000000
H     3.711000000     6.782000000     2.863000000
H     3.811000000     5.276000000     2.970000000
O    -5.812000000    -2.862000000    -0.091000000
H    -6.499000000    -2.589000000     0.518000000
H    -6.278000000    -3.321000000    -0.789000000
O     2.507000000    -2.618000000     1.753000000
H     2.367000000    -1.858000000     2.318000000
H     2.054000000    -3.334000000     2.198000000
O    -4.834000000    -1.754000000     3.944000000
H    -5.054000000    -1.023000000     3.366000000
H    -4.103000000    -2.192000000     3.508000000
O    -0.068000000     6.147000000     4.180000000
H     0.080000000     6.840000000     3.537000000
H    -0.269000000     5.372000000     3.655000000
O    -0.878000000     3.462000000     3.509000000
H    -1.647000000     3.902000000     3.871000000
H    -0.699000000     2.749000000     4.123000000
O     2.717000000    -0.670000000     3.985000000
H     3.656000000    -0.584000000     3.822000000
H     2.392000000     0.230000000     3.991000000
O    -0.719000000    -0.758000000    -6.038000000
H    -0.344000000     0.112000000    -5.897000000
H    -0.840000000    -0.816000000    -6.986000000
O     5.147000000     5.050000000     0.225000000
H     6.074000000     5.120000000    -0.003000000
H     5.041000000     5.632000000     0.978000000
O     5.483000000    -1.075000000    -0.443000000
H     4.540000000    -1.220000000    -0.509000000
H     5.873000000    -1.803000000    -0.927000000
O     1.018000000    -5.325000000     1.540000000
H     0.316000000    -5.952000000     1.366000000
H     1.322000000    -5.059000000     0.672000000
O     2.797000000     5.987000000     5.436000000
H     2.609000000     5.643000000     4.562000000
H     2.443000000     6.876000000     5.424000000
O     3.528000000     5.079000000    -1.799000000
H     4.260000000     4.955000000    -1.194000000
H     2.947000000     4.338000000    -1.627000000
O    -0.306000000     2.000000000    -6.718000000
H     0.449000000     2.223000000    -6.174000000
H    -0.452000000     2.777000000    -7.257000000
O    -4.701000000    -5.035000000    -2.479000000
H    -4.791000000    -5.782000000    -3.071000000
H    -5.572000000    -4.927000000    -2.097000000
O     2.556000000     2.222000000    -3.991000000
H     1.899000000     2.822000000    -4.343000000
H     2.487000000     2.322000000    -3.041000000
O     1.072000000     4.322000000    -5.410000000
H     1.776000000     4.971000000    -5.415000000
H     0.380000000     4.723000000    -4.885000000
O     0.969000000     8.036000000     2.250000000
H     1.868000000     8.260000000     2.493000000
H     1.063000000     7.470000000     1.483000000
O    -1.217000000    -7.030000000     0.823000000
H    -1.354000000    -7.770000000     1.414000000
H    -2.062000000    -6.581000000     0.803000000
O    -1.460000000    -7.096000000    -1.996000000
H    -1.526000000    -6.688000000    -1.133000000
H    -1.024000000    -6.439000000    -2.539000000
O     2.265000000     4.197000000     3.125000000
H     2.024000000     3.419000000     3.628000000
H     2.235000000     3.910000000     2.212000000
O     2.617000000     0.261000000    -6.106000000
H     2.325000000    -0.569000000    -5.730000000
H     2.773000000     0.825000000    -5.349000000
O     2.388000000     7.853000000    -2.416000000
H     2.246000000     6.924000000    -2.230000000
H     1.525000000     8.252000000    -2.311000000
O    -1.031000000     1.519000000     5.446000000
H    -0.658000000     0.661000000     5.243000000
H    -1.845000000     1.324000000     5.911000000
O    -0.205000000    -5.214000000    -3.332000000
H     0.727000000    -5.054000000    -3.181000000
H    -0.495000000    -4.465000000    -3.853000000
O     1.829000000     2.036000000     4.929000000
H     2.291000000     1.692000000     5.693000000
H     0.913000000     2.084000000     5.205000000
O    -5.402000000     0.165000000     2.215000000
H    -6.136000000     0.433000000     1.662000000
H    -4.764000000    -0.204000000     1.604000000
O    -4.545000000    -1.943000000    -4.056000000
H    -3.894000000    -2.530000000    -3.670000000
H    -4.831000000    -1.392000000    -3.327000000
