158
-3015.37753
C     1.137000000     0.836000000    -0.487000000
H     1.866000000     1.434000000    -1.028000000
C     0.851000000    -0.518000000    -0.881000000
H     1.426000000    -0.982000000    -1.678000000
C    -0.175000000    -1.209000000    -0.317000000
H    -0.452000000    -2.128000000    -0.711000000
C    -0.916000000    -0.562000000     0.684000000
H    -1.756000000    -1.060000000     1.162000000
C    -0.618000000     0.728000000     1.081000000
H    -1.258000000     1.272000000     1.770000000
C     0.371000000     1.493000000     0.491000000
C     0.469000000     2.993000000     0.812000000
O     1.328000000     3.663000000     0.345000000
O    -0.542000000     3.461000000     1.360000000
O    -0.076000000    -0.957000000     4.260000000
H    -0.810000000    -1.049000000     3.653000000
H    -0.484000000    -0.915000000     5.125000000
O     3.916000000    -4.976000000     2.020000000
H     4.286000000    -5.461000000     2.758000000
H     3.135000000    -4.554000000     2.379000000
O     3.014000000    -1.001000000     1.431000000
H     3.239000000    -0.183000000     1.874000000
H     2.078000000    -0.925000000     1.245000000
O     6.476000000     4.494000000     0.638000000
H     7.128000000     4.419000000    -0.059000000
H     5.637000000     4.534000000     0.178000000
O    -0.378000000    -3.001000000    -3.607000000
H     0.557000000    -2.891000000    -3.776000000
H    -0.764000000    -2.153000000    -3.830000000
O    -0.823000000    -5.427000000    -5.429000000
H    -0.472000000    -6.306000000    -5.571000000
H    -0.751000000    -5.289000000    -4.485000000
O    -5.272000000     1.896000000     0.868000000
H    -5.131000000     2.544000000     1.559000000
H    -5.593000000     2.405000000     0.124000000
O     3.411000000     1.199000000     2.993000000
H     2.646000000     1.762000000     3.113000000
H     4.154000000     1.802000000     2.997000000
O    -5.212000000    -1.542000000    -0.937000000
H    -5.867000000    -1.124000000    -1.497000000
H    -5.594000000    -1.513000000    -0.060000000
O    -6.100000000    -0.424000000     1.635000000
H    -5.844000000     0.428000000     1.281000000
H    -5.887000000    -0.370000000     2.567000000
O    -1.872000000     5.183000000     3.008000000
H    -1.498000000     4.593000000     2.353000000
H    -2.098000000     4.613000000     3.743000000
O    -2.675000000     2.728000000     4.202000000
H    -2.661000000     1.858000000     3.802000000
H    -3.602000000     2.898000000     4.370000000
O    -2.427000000     4.406000000    -0.205000000
H    -1.967000000     3.931000000     0.487000000
H    -1.792000000     5.052000000    -0.515000000
O    -0.591000000     7.608000000     4.717000000
H    -0.575000000     6.658000000     4.608000000
H    -1.498000000     7.808000000     4.949000000
O    -5.012000000     4.667000000     2.409000000
H    -4.174000000     4.915000000     2.018000000
H    -5.615000000     5.362000000     2.144000000
O     4.802000000     6.914000000    -0.774000000
H     4.670000000     7.321000000     0.083000000
H     4.608000000     5.988000000    -0.632000000
O    -1.244000000    -0.434000000    -3.827000000
H    -1.075000000     0.508000000    -3.846000000
H    -1.872000000    -0.550000000    -3.114000000
O    -2.931000000    -0.214000000    -1.671000000
H    -3.781000000    -0.617000000    -1.494000000
H    -2.361000000    -0.541000000    -0.975000000
O     3.160000000     3.142000000    -4.365000000
H     2.604000000     2.416000000    -4.649000000
H     2.697000000     3.927000000    -4.658000000
O     4.000000000     5.031000000     4.076000000
H     3.101000000     4.828000000     3.818000000
H     3.912000000     5.506000000     4.902000000
O    -1.183000000    -4.092000000     1.007000000
H    -0.702000000    -4.413000000     0.244000000
H    -0.727000000    -4.473000000     1.756000000
O    -4.077000000    -6.825000000     0.049000000
H    -4.307000000    -5.930000000    -0.200000000
H    -3.306000000    -7.030000000    -0.480000000
O     5.018000000    -2.043000000     0.011000000
H     4.672000000    -2.393000000    -0.809000000
H     4.243000000    -1.760000000     0.497000000
O    -0.137000000    -4.744000000     3.565000000
H     0.097000000    -5.449000000     4.169000000
H    -0.469000000    -4.046000000     4.130000000
O    -3.123000000    -0.133000000     3.727000000
H    -3.619000000    -0.536000000     4.439000000
H    -2.780000000    -0.873000000     3.226000000
O    -1.136000000     7.275000000    -0.851000000
H    -1.075000000     8.211000000    -0.657000000
H    -1.923000000     7.194000000    -1.391000000
O    -3.071000000    -1.396000000    -5.589000000
H    -2.598000000    -2.013000000    -6.147000000
H    -2.397000000    -1.021000000    -5.022000000
O     4.785000000    -2.655000000    -2.766000000
H     5.177000000    -2.157000000    -3.483000000
H     3.842000000    -2.590000000    -2.917000000
O     0.919000000     2.217000000     3.749000000
H     0.087000000     2.005000000     3.326000000
H     0.982000000     1.599000000     4.477000000
O     2.247000000    -2.910000000     3.110000000
H     1.351000000    -2.606000000     3.255000000
H     2.494000000    -2.533000000     2.265000000
O     1.771000000    -0.681000000    -4.765000000
H     0.928000000    -0.376000000    -4.429000000
H     2.088000000     0.040000000    -5.309000000
O     3.890000000     4.408000000    -0.701000000
H     3.157000000     3.983000000    -0.255000000
H     4.168000000     3.774000000    -1.362000000
O    -2.558000000     7.684000000     2.473000000
H    -3.323000000     7.680000000     3.048000000
H    -2.188000000     6.806000000     2.562000000
O     3.922000000     6.920000000     1.808000000
H     3.943000000     6.284000000     2.523000000
H     3.100000000     6.742000000     1.352000000
O     1.498000000     6.582000000    -0.039000000
H     0.647000000     6.686000000    -0.463000000
H     1.555000000     5.647000000     0.159000000
O    -1.831000000     2.442000000     6.868000000
H    -1.775000000     1.498000000     7.011000000
H    -2.110000000     2.531000000     5.957000000
O     5.551000000     0.836000000     0.396000000
H     5.795000000     1.321000000    -0.393000000
H     5.276000000    -0.022000000     0.074000000
O    -3.093000000     2.431000000    -2.610000000
H    -3.083000000     1.625000000    -2.094000000
H    -3.037000000     3.132000000    -1.961000000
O     1.412000000     5.364000000     2.869000000
H     0.788000000     4.770000000     3.286000000
H     1.372000000     5.140000000     1.939000000
O     5.008000000     2.715000000    -2.364000000
H     4.183000000     2.650000000    -2.844000000
H     5.682000000     2.692000000    -3.044000000
O     2.225000000    -3.083000000    -4.350000000
H     2.752000000    -3.511000000    -5.024000000
H     2.097000000    -2.192000000    -4.676000000
O     0.198000000     3.478000000    -2.318000000
H     0.516000000     3.626000000    -1.428000000
H     0.619000000     4.161000000    -2.840000000
O    -0.732000000     2.126000000    -4.641000000
H    -1.260000000     2.752000000    -5.136000000
H    -0.674000000     2.503000000    -3.763000000
O    -2.704000000    -4.575000000    -3.746000000
H    -2.254000000    -3.823000000    -4.131000000
H    -2.904000000    -4.301000000    -2.851000000
O    -3.792000000     5.900000000    -1.967000000
H    -4.690000000     5.781000000    -1.659000000
H    -3.266000000     5.339000000    -1.397000000
O    -2.576000000    -2.610000000     2.959000000
H    -2.262000000    -3.202000000     2.275000000
H    -3.278000000    -3.096000000     3.393000000
O     1.890000000    -5.215000000    -2.531000000
H     2.526000000    -5.185000000    -1.816000000
H     2.131000000    -4.480000000    -3.096000000
O    -3.418000000    -3.644000000    -1.205000000
H    -2.747000000    -3.511000000    -0.535000000
H    -4.030000000    -2.919000000    -1.077000000
