158
-2988.03584
C    -0.825000000    -1.177000000     0.634000000
H    -1.388000000    -2.046000000     0.964000000
C    -0.949000000    -0.702000000    -0.697000000
H    -1.667000000    -1.067000000    -1.428000000
C    -0.156000000     0.382000000    -1.163000000
H    -0.290000000     0.779000000    -2.199000000
C     0.797000000     0.928000000    -0.357000000
H     1.419000000     1.742000000    -0.721000000
C     0.894000000     0.541000000     0.975000000
H     1.554000000     1.128000000     1.609000000
C     0.051000000    -0.481000000     1.518000000
C     0.302000000    -0.773000000     2.943000000
O     1.199000000    -0.225000000     3.573000000
O    -0.294000000    -1.671000000     3.559000000
O    -4.613000000    -1.712000000    -1.809000000
H    -5.560000000    -1.616000000    -1.708000000
H    -4.250000000    -0.908000000    -1.437000000
O    -2.981000000    -3.476000000    -3.632000000
H    -2.106000000    -3.090000000    -3.678000000
H    -3.461000000    -2.911000000    -3.027000000
O    -0.469000000    -4.200000000     3.267000000
H    -0.080000000    -4.270000000     2.396000000
H    -0.357000000    -3.281000000     3.508000000
O    -5.062000000    -1.230000000     4.267000000
H    -5.000000000    -1.556000000     3.369000000
H    -4.171000000    -1.302000000     4.610000000
O    -2.496000000     1.506000000     4.013000000
H    -2.804000000     1.541000000     4.919000000
H    -1.995000000     0.692000000     3.962000000
O    -3.228000000     0.675000000    -7.080000000
H    -3.755000000     1.285000000    -7.595000000
H    -3.834000000     0.327000000    -6.427000000
O    -2.485000000     4.386000000    -5.286000000
H    -3.330000000     4.607000000    -5.677000000
H    -2.068000000     3.811000000    -5.928000000
O    -1.981000000     1.063000000     6.606000000
H    -2.563000000     1.597000000     7.146000000
H    -1.136000000     1.099000000     7.055000000
O    -2.663000000    -3.871000000     6.546000000
H    -1.969000000    -4.525000000     6.624000000
H    -2.313000000    -3.221000000     5.936000000
O     3.342000000    -4.745000000     5.852000000
H     3.069000000    -4.773000000     6.769000000
H     2.921000000    -3.961000000     5.500000000
O    -1.928000000    -5.245000000    -0.230000000
H    -2.155000000    -4.859000000     0.616000000
H    -2.744000000    -5.221000000    -0.731000000
O     3.886000000    -0.642000000     2.656000000
H     2.966000000    -0.561000000     2.908000000
H     3.872000000    -0.666000000     1.700000000
O     3.603000000     0.801000000    -3.162000000
H     3.021000000     0.860000000    -3.919000000
H     3.786000000    -0.134000000    -3.072000000
O     0.498000000     3.307000000    -4.749000000
H     1.088000000     2.553000000    -4.763000000
H    -0.182000000     3.091000000    -5.387000000
O    -1.953000000    -6.705000000     3.812000000
H    -2.578000000    -6.629000000     4.533000000
H    -1.601000000    -5.822000000     3.705000000
O     1.129000000    -0.886000000    -6.920000000
H     1.091000000    -1.728000000    -6.466000000
H     1.933000000    -0.929000000    -7.437000000
O     2.380000000     1.218000000    -5.686000000
H     2.187000000     0.384000000    -6.114000000
H     3.178000000     1.528000000    -6.114000000
O     1.926000000    -6.466000000     3.391000000
H     2.314000000    -6.406000000     4.264000000
H     1.109000000    -5.971000000     3.457000000
O     1.484000000     6.318000000    -2.538000000
H     1.103000000     7.183000000    -2.381000000
H     0.776000000     5.814000000    -2.939000000
O     5.391000000    -2.166000000     6.047000000
H     5.908000000    -2.944000000     5.836000000
H     4.499000000    -2.495000000     6.157000000
O     4.517000000     1.909000000     5.780000000
H     4.471000000     2.816000000     6.083000000
H     5.091000000     1.941000000     5.015000000
O     3.736000000    -3.358000000    -4.272000000
H     4.596000000    -3.564000000    -4.638000000
H     3.153000000    -3.328000000    -5.031000000
O     1.919000000     1.703000000     8.394000000
H     1.160000000     1.314000000     8.830000000
H     1.742000000     1.589000000     7.460000000
O    -0.766000000     4.904000000    -2.953000000
H    -0.241000000     4.291000000    -3.467000000
H    -1.663000000     4.763000000    -3.256000000
O    -4.607000000    -3.990000000    -0.358000000
H    -4.571000000    -3.105000000    -0.720000000
H    -5.260000000    -3.937000000     0.340000000
O    -0.339000000    -5.349000000     5.837000000
H    -0.303000000    -4.887000000     5.000000000
H     0.208000000    -6.123000000     5.708000000
O     1.677000000     4.130000000    -7.386000000
H     0.926000000     4.483000000    -7.863000000
H     1.325000000     3.890000000    -6.529000000
O     3.787000000    -1.059000000     0.088000000
H     4.547000000    -0.948000000    -0.483000000
H     3.038000000    -1.068000000    -0.508000000
O     2.518000000    -2.759000000    -1.781000000
H     1.577000000    -2.722000000    -1.952000000
H     2.918000000    -2.801000000    -2.649000000
O     3.784000000     5.158000000     2.422000000
H     4.419000000     5.194000000     1.707000000
H     3.051000000     4.657000000     2.066000000
O    -3.857000000    -2.651000000    -6.804000000
H    -2.984000000    -3.041000000    -6.837000000
H    -3.824000000    -2.051000000    -6.060000000
O    -2.004000000     2.786000000     1.459000000
H    -1.146000000     2.362000000     1.491000000
H    -2.503000000     2.370000000     2.162000000
O     0.657000000     3.601000000     3.456000000
H     0.828000000     2.702000000     3.739000000
H     0.992000000     4.144000000     4.169000000
O     4.065000000     3.753000000    -3.746000000
H     4.619000000     3.017000000    -3.485000000
H     3.354000000     3.757000000    -3.105000000
O     1.981000000    -2.408000000     5.335000000
H     1.669000000    -1.677000000     4.802000000
H     1.411000000    -2.405000000     6.104000000
O    -2.064000000     3.078000000    -1.226000000
H    -1.560000000     3.844000000    -1.502000000
H    -1.919000000     3.024000000    -0.282000000
O     1.277000000     4.335000000     0.752000000
H     0.697000000     4.090000000     0.032000000
H     0.805000000     4.071000000     1.542000000
O    -4.050000000     1.288000000    -1.943000000
H    -4.489000000     2.104000000    -1.701000000
H    -3.132000000     1.535000000    -2.057000000
O     0.035000000    -4.452000000    -3.214000000
H    -0.845000000    -4.742000000    -2.974000000
H     0.246000000    -4.953000000    -4.002000000
O    -4.912000000    -0.385000000    -5.184000000
H    -5.031000000     0.042000000    -4.336000000
H    -5.802000000    -0.561000000    -5.491000000
O    -2.139000000    -1.555000000     5.217000000
H    -1.337000000    -1.634000000     4.702000000
H    -2.013000000    -0.760000000     5.736000000
O    -0.957000000    -2.219000000    -4.739000000
H    -0.315000000    -2.839000000    -4.392000000
H    -0.445000000    -1.626000000    -5.289000000
O     5.938000000     0.861000000     3.308000000
H     5.100000000     0.459000000     3.080000000
H     6.269000000     1.211000000     2.481000000
O     1.837000000     0.984000000     5.833000000
H     2.704000000     1.333000000     5.628000000
H     1.578000000     0.508000000     5.044000000
O    -5.020000000    -0.251000000     1.428000000
H    -5.149000000     0.430000000     0.769000000
H    -5.716000000    -0.101000000     2.067000000
O    -1.290000000     2.643000000    -6.908000000
H    -1.564000000     1.754000000    -6.681000000
H    -0.807000000     2.542000000    -7.729000000
O     0.950000000    -1.890000000     7.841000000
H     0.903000000    -2.256000000     8.724000000
H     0.994000000    -0.944000000     7.975000000
O     0.922000000    -3.964000000     0.111000000
H     1.664000000    -3.539000000    -0.320000000
H     0.460000000    -4.414000000    -0.596000000
