158
-3024.13665
C    -0.907000000    -1.056000000     0.425000000
H    -1.564000000    -1.891000000     0.652000000
C    -1.302000000    -0.018000000    -0.437000000
H    -2.344000000     0.029000000    -0.745000000
C    -0.373000000     0.970000000    -0.677000000
H    -0.555000000     1.940000000    -1.164000000
C     0.951000000     0.884000000    -0.190000000
H     1.710000000     1.589000000    -0.521000000
C     1.382000000    -0.201000000     0.535000000
H     2.438000000    -0.260000000     0.787000000
C     0.425000000    -1.183000000     0.947000000
C     0.830000000    -2.309000000     1.920000000
O     1.997000000    -2.647000000     2.080000000
O    -0.062000000    -2.875000000     2.535000000
O    -5.993000000    -2.416000000     2.962000000
H    -5.737000000    -1.585000000     2.563000000
H    -5.664000000    -3.083000000     2.359000000
O    -4.283000000     2.517000000    -5.358000000
H    -3.848000000     2.563000000    -6.209000000
H    -3.805000000     3.138000000    -4.809000000
O    -5.741000000     0.552000000     2.341000000
H    -4.796000000     0.646000000     2.223000000
H    -6.030000000     1.410000000     2.653000000
O    -3.098000000     0.796000000     2.184000000
H    -2.233000000     1.191000000     2.073000000
H    -2.937000000     0.011000000     2.708000000
O    -4.582000000    -1.558000000    -2.499000000
H    -5.384000000    -1.364000000    -2.984000000
H    -3.930000000    -0.960000000    -2.864000000
O    -1.347000000    -4.522000000    -3.140000000
H    -1.552000000    -4.158000000    -4.001000000
H    -0.538000000    -4.080000000    -2.880000000
O    -2.258000000    -5.058000000     1.943000000
H    -1.844000000    -5.439000000     1.168000000
H    -1.588000000    -4.484000000     2.315000000
O    -5.313000000    -2.755000000     0.062000000
H    -6.136000000    -3.081000000    -0.302000000
H    -4.962000000    -2.179000000    -0.618000000
O    -4.583000000     2.736000000    -0.317000000
H    -4.889000000     1.829000000    -0.307000000
H    -5.174000000     3.195000000     0.280000000
O    -1.944000000     4.727000000    -5.488000000
H    -2.248000000     5.285000000    -6.205000000
H    -1.571000000     3.961000000    -5.923000000
O    -0.300000000    -1.637000000     5.590000000
H     0.251000000    -1.068000000     5.053000000
H    -0.091000000    -1.391000000     6.492000000
O     0.805000000    -6.396000000     6.336000000
H     0.745000000    -7.271000000     5.952000000
H     0.156000000    -5.880000000     5.860000000
O     4.470000000    -2.834000000     0.644000000
H     4.356000000    -2.160000000    -0.026000000
H     3.648000000    -2.826000000     1.134000000
O    -1.401000000    -0.261000000    -6.130000000
H    -0.452000000    -0.384000000    -6.145000000
H    -1.585000000     0.276000000    -6.901000000
O    -4.240000000    -1.867000000     5.416000000
H    -3.629000000    -2.323000000     5.995000000
H    -3.788000000    -1.828000000     4.573000000
O    -2.775000000    -7.300000000     4.448000000
H    -2.329000000    -6.525000000     4.107000000
H    -3.322000000    -6.968000000     5.160000000
O     1.879000000     2.164000000    -4.493000000
H     2.005000000     3.038000000    -4.124000000
H     1.857000000     1.584000000    -3.733000000
O     1.493000000     0.590000000     4.300000000
H     1.821000000     1.413000000     4.662000000
H     2.254000000     0.009000000     4.298000000
O     0.129000000     5.910000000    -3.537000000
H    -0.331000000     5.330000000    -4.143000000
H    -0.476000000     6.017000000    -2.802000000
O     4.008000000    -7.063000000     3.688000000
H     3.277000000    -6.743000000     3.160000000
H     4.778000000    -6.631000000     3.319000000
O     4.565000000     0.625000000     2.072000000
H     4.431000000     1.566000000     1.958000000
H     5.298000000     0.416000000     1.492000000
O     1.282000000    -3.909000000    -1.671000000
H     1.423000000    -3.497000000    -0.818000000
H     2.157000000    -3.967000000    -2.056000000
O    -0.991000000    -4.512000000     5.039000000
H    -0.466000000    -3.714000000     5.097000000
H    -1.849000000    -4.214000000     4.737000000
O    -5.139000000    -5.216000000     1.950000000
H    -4.218000000    -4.962000000     1.893000000
H    -5.311000000    -5.285000000     2.889000000
O     4.503000000    -0.858000000    -1.381000000
H     4.716000000     0.074000000    -1.439000000
H     3.899000000    -1.011000000    -2.107000000
O     4.835000000    -5.253000000    -0.822000000
H     5.135000000    -4.703000000    -0.098000000
H     5.427000000    -6.005000000    -0.813000000
O     2.498000000    -6.127000000     1.075000000
H     2.042000000    -5.592000000     1.724000000
H     3.183000000    -5.555000000     0.730000000
O    -1.851000000     3.785000000     0.480000000
H    -1.410000000     3.154000000     1.049000000
H    -2.613000000     3.312000000     0.144000000
O    -0.738000000     1.979000000     2.305000000
H    -0.550000000     1.956000000     3.243000000
H     0.063000000     1.656000000     1.892000000
O     2.661000000     5.166000000    -4.414000000
H     3.382000000     5.372000000    -3.819000000
H     1.922000000     5.673000000    -4.079000000
O    -0.882000000     1.534000000     5.004000000
H    -0.953000000     1.729000000     5.938000000
H    -0.055000000     1.060000000     4.921000000
O     1.160000000    -5.186000000     3.124000000
H     0.972000000    -4.320000000     2.762000000
H     0.389000000    -5.397000000     3.651000000
O    -1.557000000     5.963000000    -1.510000000
H    -1.889000000     5.076000000    -1.370000000
H    -1.742000000     6.420000000    -0.690000000
O     0.182000000     5.464000000     1.258000000
H    -0.139000000     5.327000000     2.149000000
H    -0.339000000     4.868000000     0.721000000
O    -3.050000000    -0.060000000    -4.073000000
H    -3.283000000     0.833000000    -4.327000000
H    -2.221000000    -0.227000000    -4.520000000
O     5.029000000     2.128000000    -1.275000000
H     5.787000000     1.729000000    -1.702000000
H     4.726000000     2.790000000    -1.895000000
O     2.601000000    -0.932000000    -3.376000000
H     2.390000000    -1.607000000    -4.021000000
H     1.779000000    -0.459000000    -3.247000000
O     2.746000000     5.256000000     2.194000000
H     2.471000000     5.953000000     2.790000000
H     1.965000000     5.064000000     1.675000000
O    -2.498000000     6.609000000     1.085000000
H    -2.956000000     5.774000000     1.183000000
H    -1.760000000     6.551000000     1.692000000
O    -2.194000000    -1.737000000     3.487000000
H    -1.562000000    -2.250000000     2.984000000
H    -1.679000000    -1.346000000     4.192000000
O     4.929000000     3.704000000     2.211000000
H     4.870000000     3.709000000     1.255000000
H     4.147000000     4.171000000     2.502000000
O     3.546000000    -1.412000000     3.580000000
H     3.720000000    -0.617000000     3.076000000
H     2.870000000    -1.869000000     3.080000000
O    -5.967000000     0.493000000    -0.383000000
H    -6.154000000    -0.299000000    -0.886000000
H    -5.860000000     0.186000000     0.517000000
O     6.123000000    -5.556000000     2.352000000
H     7.000000000    -5.883000000     2.155000000
H     6.166000000    -4.620000000     2.155000000
O    -0.223000000     2.633000000    -6.230000000
H     0.642000000     2.442000000    -5.866000000
H    -0.067000000     2.748000000    -7.168000000
O    -3.695000000     4.124000000    -2.271000000
H    -3.893000000     3.455000000    -1.615000000
H    -4.486000000     4.175000000    -2.807000000
O     3.729000000    -4.205000000     4.267000000
H     3.919000000    -3.334000000     3.918000000
H     2.889000000    -4.442000000     3.875000000
O    -0.432000000    -6.113000000    -0.078000000
H     0.379000000    -5.740000000    -0.425000000
H    -0.176000000    -6.974000000     0.254000000
