158
-3016.58839
C    -1.153000000     0.834000000     0.266000000
H    -1.962000000     1.552000000     0.368000000
C    -0.183000000     1.193000000    -0.606000000
H    -0.276000000     2.086000000    -1.219000000
C     0.905000000     0.312000000    -0.784000000
H     1.597000000     0.586000000    -1.600000000
C     0.950000000    -0.891000000    -0.010000000
H     1.741000000    -1.607000000    -0.218000000
C    -0.013000000    -1.181000000     0.920000000
H     0.034000000    -2.147000000     1.415000000
C    -1.096000000    -0.322000000     1.057000000
C    -2.078000000    -0.547000000     2.187000000
O    -2.284000000    -1.647000000     2.681000000
O    -2.878000000     0.334000000     2.478000000
O     0.988000000     5.432000000    -1.327000000
H     1.843000000     5.134000000    -1.640000000
H     0.429000000     5.415000000    -2.103000000
O    -0.238000000    -4.558000000     5.971000000
H    -0.107000000    -3.998000000     5.206000000
H    -1.003000000    -4.188000000     6.411000000
O     5.461000000     0.863000000    -0.506000000
H     4.903000000     1.420000000     0.036000000
H     6.332000000     1.253000000    -0.433000000
O    -4.909000000    -0.881000000    -2.039000000
H    -5.159000000    -0.506000000    -1.194000000
H    -4.022000000    -1.211000000    -1.901000000
O    -0.612000000     1.258000000     5.701000000
H    -0.342000000     0.562000000     5.103000000
H    -1.231000000     1.783000000     5.193000000
O    -2.469000000    -2.985000000    -0.889000000
H    -1.880000000    -2.471000000    -1.442000000
H    -1.908000000    -3.320000000    -0.189000000
O     1.085000000     4.586000000     1.285000000
H     1.247000000     4.828000000     0.373000000
H     1.585000000     5.223000000     1.794000000
O     4.423000000     4.170000000    -6.322000000
H     3.658000000     3.641000000    -6.096000000
H     4.926000000     3.620000000    -6.923000000
O    -1.657000000    -5.857000000     2.029000000
H    -0.799000000    -5.448000000     2.140000000
H    -2.040000000    -5.408000000     1.275000000
O    -1.773000000     2.869000000    -3.680000000
H    -1.450000000     3.767000000    -3.757000000
H    -1.781000000     2.539000000    -4.578000000
O    -0.686000000    -0.640000000    -5.246000000
H    -1.280000000    -0.332000000    -5.931000000
H    -0.515000000     0.136000000    -4.712000000
O    -4.526000000    -1.169000000     4.229000000
H    -3.731000000    -1.237000000     3.700000000
H    -4.931000000    -0.348000000     3.949000000
O     0.842000000    -4.630000000     2.050000000
H     1.618000000    -4.250000000     1.637000000
H     0.608000000    -4.007000000     2.738000000
O    -5.396000000     3.609000000     3.456000000
H    -5.324000000     2.655000000     3.452000000
H    -4.552000000     3.913000000     3.790000000
O     3.453000000     1.544000000    -3.220000000
H     3.248000000     1.501000000    -2.286000000
H     4.224000000     2.110000000    -3.270000000
O    -4.428000000     0.752000000     6.513000000
H    -4.179000000     0.094000000     5.865000000
H    -5.029000000     0.294000000     7.101000000
O    -0.246000000     5.330000000    -3.830000000
H     0.562000000     5.272000000    -4.340000000
H    -0.884000000     5.710000000    -4.434000000
O     6.621000000    -0.217000000    -2.820000000
H     6.359000000    -1.129000000    -2.692000000
H     6.252000000     0.246000000    -2.068000000
O     2.132000000     3.273000000    -4.945000000
H     1.507000000     2.913000000    -5.575000000
H     2.518000000     2.505000000    -4.525000000
O    -1.702000000     4.288000000     1.609000000
H    -2.420000000     4.119000000     0.999000000
H    -0.966000000     4.538000000     1.051000000
O     3.656000000    -1.815000000     4.016000000
H     3.966000000    -2.328000000     4.763000000
H     2.766000000    -2.132000000     3.860000000
O    -0.713000000    -6.029000000    -2.661000000
H    -1.371000000    -5.649000000    -3.244000000
H    -0.165000000    -5.288000000    -2.404000000
O    -4.752000000     0.508000000     0.400000000
H    -4.047000000     0.172000000     0.952000000
H    -4.672000000     1.460000000     0.461000000
O    -7.195000000    -1.834000000     0.969000000
H    -7.270000000    -0.891000000     0.824000000
H    -6.253000000    -1.990000000     1.045000000
O     3.260000000    -3.170000000     1.629000000
H     3.710000000    -2.849000000     0.847000000
H     3.492000000    -2.542000000     2.313000000
O     3.970000000     0.944000000     3.013000000
H     4.048000000     0.008000000     3.194000000
H     3.049000000     1.068000000     2.783000000
O    -3.645000000    -3.896000000     4.855000000
H    -3.298000000    -3.999000000     5.742000000
H    -3.889000000    -2.972000000     4.799000000
O    -2.766000000     5.809000000     3.652000000
H    -2.579000000     5.006000000     3.165000000
H    -2.332000000     6.499000000     3.152000000
O    -4.126000000    -2.984000000     1.189000000
H    -3.581000000    -2.588000000     1.868000000
H    -3.678000000    -2.775000000     0.370000000
O    -5.050000000    -6.043000000     3.694000000
H    -4.621000000    -5.199000000     3.838000000
H    -5.697000000    -6.105000000     4.397000000
O     3.056000000     4.527000000    -2.860000000
H     3.718000000     3.869000000    -2.648000000
H     2.820000000     4.346000000    -3.770000000
O     5.575000000     3.239000000    -2.642000000
H     6.367000000     3.408000000    -3.152000000
H     5.735000000     3.668000000    -1.802000000
O     1.166000000     1.628000000     2.357000000
H     1.211000000     2.574000000     2.215000000
H     0.686000000     1.295000000     1.599000000
O     0.691000000    -3.820000000    -2.145000000
H     0.816000000    -3.538000000    -1.239000000
H     1.533000000    -3.646000000    -2.567000000
O     3.733000000    -0.003000000    -5.483000000
H     3.134000000    -0.677000000    -5.805000000
H     3.441000000     0.168000000    -4.588000000
O    -5.218000000    -5.651000000     0.940000000
H    -5.371000000    -6.029000000     1.805000000
H    -4.627000000    -4.915000000     1.101000000
O     1.146000000    -0.428000000     4.160000000
H     1.723000000    -0.260000000     4.906000000
H     1.224000000     0.356000000     3.616000000
O    -4.044000000     3.853000000    -2.309000000
H    -4.712000000     3.223000000    -2.578000000
H    -3.231000000     3.515000000    -2.684000000
O    -6.378000000     0.605000000     3.788000000
H    -7.099000000     0.525000000     3.164000000
H    -6.784000000     0.459000000     4.643000000
O    -1.285000000    -1.536000000    -2.766000000
H    -0.829000000    -1.805000000    -3.563000000
H    -0.905000000    -0.684000000    -2.549000000
O     3.228000000    -3.093000000    -3.969000000
H     3.997000000    -3.659000000    -3.897000000
H     3.203000000    -2.839000000    -4.891000000
O     4.261000000     3.248000000     1.074000000
H     3.819000000     4.082000000     1.230000000
H     4.351000000     2.858000000     1.943000000
O    -2.364000000     2.486000000     3.912000000
H    -2.651000000     1.711000000     3.429000000
H    -2.170000000     3.133000000     3.234000000
O    -0.299000000    -2.930000000     3.916000000
H     0.224000000    -2.146000000     4.082000000
H    -0.999000000    -2.632000000     3.335000000
O    -4.188000000     3.345000000     0.498000000
H    -5.034000000     3.589000000     0.873000000
H    -4.290000000     3.494000000    -0.442000000
O     1.665000000    -1.566000000    -6.452000000
H     1.684000000    -1.237000000    -7.350000000
H     0.831000000    -1.255000000    -6.100000000
O     5.068000000    -2.041000000    -0.151000000
H     5.243000000    -1.101000000    -0.111000000
H     5.850000000    -2.414000000    -0.557000000
O    -6.826000000    -2.356000000     4.669000000
H    -5.909000000    -2.259000000     4.409000000
H    -6.989000000    -1.615000000     5.251000000
