158
-2976.50966
C    -1.089000000     0.995000000     0.361000000
H    -1.749000000     1.783000000     0.713000000
C     0.050000000     1.268000000    -0.471000000
H     0.228000000     2.262000000    -0.873000000
C     0.947000000     0.203000000    -0.741000000
H     1.784000000     0.483000000    -1.440000000
C     0.686000000    -1.055000000    -0.271000000
H     1.468000000    -1.762000000    -0.534000000
C    -0.421000000    -1.325000000     0.548000000
H    -0.458000000    -2.333000000     0.954000000
C    -1.233000000    -0.298000000     0.898000000
C    -2.302000000    -0.674000000     1.929000000
O    -2.205000000    -1.624000000     2.624000000
O    -3.226000000     0.111000000     2.058000000
O     2.565000000     2.495000000     0.464000000
H     3.207000000     2.090000000    -0.118000000
H     2.524000000     1.910000000     1.220000000
O    -1.429000000     4.893000000    -2.180000000
H    -0.523000000     4.730000000    -1.920000000
H    -1.588000000     4.275000000    -2.893000000
O     1.432000000     2.886000000    -5.232000000
H     1.515000000     3.041000000    -6.173000000
H     1.123000000     3.720000000    -4.879000000
O     1.551000000    -4.160000000     5.596000000
H     1.308000000    -3.444000000     5.009000000
H     2.248000000    -4.624000000     5.132000000
O    -4.176000000     0.082000000    -0.549000000
H    -3.890000000     0.876000000    -1.000000000
H    -4.067000000     0.281000000     0.381000000
O    -1.648000000     2.883000000     5.755000000
H    -2.221000000     2.229000000     6.156000000
H    -1.907000000     2.895000000     4.833000000
O    -1.976000000    -3.642000000    -0.953000000
H    -2.101000000    -2.705000000    -1.103000000
H    -1.497000000    -3.946000000    -1.723000000
O     1.434000000     4.891000000     1.258000000
H     1.745000000     4.025000000     0.993000000
H     2.041000000     5.163000000     1.946000000
O     4.635000000     2.902000000    -4.862000000
H     3.681000000     2.832000000    -4.912000000
H     4.919000000     2.948000000    -5.775000000
O    -1.449000000    -6.424000000     1.653000000
H    -0.802000000    -6.456000000     0.948000000
H    -1.722000000    -5.507000000     1.687000000
O     1.312000000     4.761000000    -2.074000000
H     1.268000000     5.231000000    -2.907000000
H     2.215000000     4.880000000    -1.780000000
O     2.200000000    -0.701000000    -5.006000000
H     1.935000000     0.212000000    -5.112000000
H     2.870000000    -0.679000000    -4.322000000
O    -3.889000000    -1.274000000     4.670000000
H    -3.189000000    -1.292000000     4.018000000
H    -4.693000000    -1.196000000     4.157000000
O     0.752000000    -5.945000000    -0.088000000
H     1.054000000    -5.619000000    -0.936000000
H     1.435000000    -5.680000000     0.528000000
O     0.140000000    -0.646000000     6.335000000
H    -0.031000000    -1.369000000     6.939000000
H     0.308000000     0.106000000     6.903000000
O    -5.500000000     3.632000000     5.308000000
H    -4.966000000     3.407000000     6.071000000
H    -5.073000000     3.184000000     4.578000000
O     4.017000000    -0.382000000    -3.156000000
H     4.746000000     0.218000000    -3.005000000
H     4.203000000    -1.133000000    -2.592000000
O    -1.304000000    -4.441000000    -3.543000000
H    -1.211000000    -5.125000000    -4.206000000
H    -0.531000000    -3.888000000    -3.659000000
O    -2.906000000     0.642000000     6.995000000
H    -2.685000000    -0.058000000     7.609000000
H    -3.022000000     0.196000000     6.155000000
O    -5.143000000    -2.051000000    -2.528000000
H    -4.885000000    -1.384000000    -1.893000000
H    -4.573000000    -1.897000000    -3.282000000
O     7.156000000    -1.958000000    -1.986000000
H     7.392000000    -1.906000000    -1.060000000
H     7.059000000    -1.046000000    -2.260000000
O     6.314000000     3.885000000     0.332000000
H     6.001000000     3.008000000     0.554000000
H     5.652000000     4.475000000     0.693000000
O    -1.063000000     3.667000000     2.646000000
H    -1.491000000     4.061000000     1.886000000
H    -0.127000000     3.775000000     2.477000000
O    -3.153000000     1.947000000    -2.741000000
H    -3.414000000     2.865000000    -2.679000000
H    -2.232000000     1.976000000    -3.002000000
O    -5.516000000    -2.941000000     1.510000000
H    -5.602000000    -2.068000000     1.895000000
H    -4.686000000    -3.273000000     1.853000000
O     3.548000000    -5.083000000     0.780000000
H     4.312000000    -5.249000000     0.228000000
H     3.503000000    -4.129000000     0.846000000
O    -5.855000000     4.117000000     0.637000000
H    -6.347000000     4.873000000     0.317000000
H    -5.302000000     4.469000000     1.334000000
O    -2.786000000    -4.024000000     1.490000000
H    -2.553000000    -3.159000000     1.826000000
H    -2.501000000    -4.012000000     0.577000000
O     5.205000000     1.505000000     0.394000000
H     5.472000000     0.866000000     1.056000000
H     5.367000000     1.066000000    -0.441000000
O     6.386000000     0.694000000    -2.172000000
H     7.185000000     1.036000000    -1.771000000
H     6.519000000     0.814000000    -3.112000000
O     2.627000000     0.004000000     2.174000000
H     3.047000000    -0.535000000     1.503000000
H     1.690000000    -0.088000000     2.004000000
O     5.104000000     0.008000000    -6.424000000
H     4.413000000     0.556000000    -6.797000000
H     4.641000000    -0.748000000    -6.064000000
O    -4.304000000    -6.088000000     2.859000000
H    -4.124000000    -6.060000000     3.799000000
H    -3.908000000    -5.287000000     2.515000000
O     2.043000000     1.859000000     4.086000000
H     2.142000000     1.410000000     4.925000000
H     2.476000000     1.285000000     3.454000000
O    -0.539000000     1.566000000    -4.031000000
H    -0.880000000     1.395000000    -4.909000000
H     0.114000000     2.255000000    -4.158000000
O    -7.612000000    -1.656000000     4.562000000
H    -7.086000000    -1.156000000     3.938000000
H    -7.448000000    -1.234000000     5.406000000
O    -1.935000000    -1.112000000    -2.506000000
H    -1.286000000    -0.583000000    -2.968000000
H    -2.262000000    -0.539000000    -1.812000000
O     3.863000000    -2.965000000    -1.968000000
H     3.228000000    -3.682000000    -1.964000000
H     4.708000000    -3.395000000    -2.100000000
O     5.345000000    -0.244000000     2.633000000
H     4.412000000    -0.121000000     2.808000000
H     5.780000000     0.071000000     3.425000000
O    -7.233000000     1.930000000     1.272000000
H    -7.935000000     2.509000000     1.569000000
H    -6.518000000     2.522000000     1.038000000
O    -3.495000000     2.537000000     3.375000000
H    -3.559000000     1.730000000     2.864000000
H    -2.757000000     3.008000000     2.987000000
O    -0.499000000    -2.784000000     4.396000000
H    -0.335000000    -1.905000000     4.738000000
H    -1.081000000    -2.645000000     3.649000000
O    -2.506000000     4.548000000     0.512000000
H    -3.459000000     4.584000000     0.428000000
H    -2.181000000     4.720000000    -0.372000000
O     3.063000000    -2.427000000    -6.732000000
H     2.947000000    -1.969000000    -7.564000000
H     2.591000000    -1.891000000    -6.095000000
O     4.216000000    -2.045000000     0.461000000
H     5.164000000    -2.062000000     0.593000000
H     4.095000000    -2.317000000    -0.449000000
O    -5.916000000    -0.359000000     2.349000000
H    -6.390000000     0.401000000     2.012000000
H    -5.006000000    -0.068000000     2.406000000
O    -3.977000000    -3.462000000     6.234000000
H    -3.927000000    -2.771000000     5.574000000
H    -4.343000000    -3.029000000     7.006000000
O     1.162000000    -3.062000000    -3.579000000
H     1.674000000    -3.755000000    -3.995000000
H     1.493000000    -2.253000000    -3.970000000
