158
-3024.34848
C    -0.685000000     0.952000000    -0.983000000
H    -1.199000000     1.670000000    -1.616000000
C     0.167000000     1.326000000     0.040000000
H     0.447000000     2.373000000     0.118000000
C     0.799000000     0.413000000     0.839000000
H     1.476000000     0.654000000     1.719000000
C     0.496000000    -0.939000000     0.715000000
H     1.042000000    -1.662000000     1.316000000
C    -0.401000000    -1.401000000    -0.326000000
H    -0.517000000    -2.479000000    -0.394000000
C    -1.048000000    -0.456000000    -1.091000000
C    -2.037000000    -0.897000000    -2.143000000
O    -2.237000000    -2.072000000    -2.262000000
O    -2.550000000    -0.060000000    -2.839000000
O     1.459000000    -2.285000000    -3.499000000
H     1.717000000    -2.190000000    -2.582000000
H     0.692000000    -2.858000000    -3.474000000
O    -0.319000000     3.005000000     6.837000000
H    -1.130000000     2.926000000     6.335000000
H     0.357000000     2.655000000     6.256000000
O    -1.026000000     4.741000000    -5.561000000
H    -0.567000000     5.325000000    -6.166000000
H    -0.360000000     4.111000000    -5.285000000
O     3.404000000    -2.238000000    -1.066000000
H     3.970000000    -1.483000000    -0.904000000
H     3.962000000    -2.859000000    -1.534000000
O    -3.576000000    -2.656000000    -4.561000000
H    -4.109000000    -1.907000000    -4.826000000
H    -3.143000000    -2.369000000    -3.756000000
O    -2.486000000     4.709000000     1.797000000
H    -1.782000000     4.556000000     2.427000000
H    -3.159000000     4.070000000     2.030000000
O     3.335000000     4.947000000     4.860000000
H     3.357000000     4.252000000     4.203000000
H     2.657000000     5.548000000     4.551000000
O    -0.776000000    -4.226000000    -2.815000000
H    -1.182000000    -5.085000000    -2.705000000
H    -1.496000000    -3.605000000    -2.703000000
O    -0.789000000    -3.260000000     4.742000000
H    -0.760000000    -4.206000000     4.879000000
H    -1.360000000    -2.934000000     5.438000000
O     3.432000000     5.089000000    -0.263000000
H     2.819000000     5.558000000     0.303000000
H     4.296000000     5.305000000     0.088000000
O     5.864000000    -0.446000000    -0.629000000
H     6.794000000    -0.667000000    -0.596000000
H     5.843000000     0.456000000    -0.950000000
O     0.268000000     0.818000000    -4.231000000
H    -0.577000000     0.468000000    -4.512000000
H     0.353000000     0.536000000    -3.320000000
O     3.547000000     2.486000000     2.855000000
H     3.601000000     2.361000000     1.907000000
H     4.129000000     1.819000000     3.218000000
O     0.738000000    -0.965000000     4.839000000
H     1.421000000    -1.071000000     4.177000000
H     0.375000000    -1.843000000     4.951000000
O    -3.056000000    -5.154000000     1.994000000
H    -3.192000000    -4.337000000     2.475000000
H    -2.523000000    -4.901000000     1.240000000
O    -4.789000000    -2.049000000     0.612000000
H    -5.692000000    -2.146000000     0.912000000
H    -4.263000000    -2.111000000     1.409000000
O    -2.474000000    -4.277000000    -6.558000000
H    -1.613000000    -3.872000000    -6.452000000
H    -2.976000000    -3.972000000    -5.802000000
O     5.041000000     0.535000000     4.626000000
H     4.842000000     0.428000000     5.556000000
H     5.972000000     0.759000000     4.604000000
O     3.532000000     1.781000000     0.321000000
H     3.652000000     2.159000000    -0.550000000
H     2.651000000     1.409000000     0.302000000
O     0.054000000    -3.181000000    -6.338000000
H     0.796000000    -2.912000000    -5.797000000
H    -0.034000000    -2.483000000    -6.987000000
O     0.346000000    -6.711000000    -1.851000000
H    -0.595000000    -6.566000000    -1.953000000
H     0.718000000    -5.831000000    -1.791000000
O     2.862000000    -0.664000000     3.298000000
H     3.348000000    -0.631000000     2.474000000
H     3.479000000    -0.337000000     3.953000000
O    -5.350000000    -0.387000000    -4.838000000
H    -5.681000000    -0.573000000    -3.959000000
H    -5.907000000     0.321000000    -5.160000000
O    -0.496000000     3.986000000     3.489000000
H    -0.004000000     4.428000000     4.182000000
H     0.120000000     3.348000000     3.129000000
O    -5.709000000    -4.295000000    -5.223000000
H    -5.085000000    -3.735000000    -4.761000000
H    -5.225000000    -5.102000000    -5.395000000
O    -4.032000000     3.059000000    -3.930000000
H    -3.368000000     2.453000000    -4.256000000
H    -4.736000000     3.015000000    -4.578000000
O    -4.331000000     5.260000000    -0.717000000
H    -3.659000000     5.648000000    -1.277000000
H    -3.982000000     5.344000000     0.170000000
O     0.762000000    -0.595000000     7.877000000
H     0.908000000    -0.651000000     6.932000000
H     1.446000000    -0.003000000     8.190000000
O    -2.417000000     5.310000000    -3.310000000
H    -2.758000000     4.449000000    -3.552000000
H    -1.860000000     5.563000000    -4.046000000
O    -3.659000000    -4.069000000    -1.366000000
H    -3.118000000    -3.380000000    -1.752000000
H    -3.891000000    -3.734000000    -0.500000000
O     2.670000000     5.097000000    -2.971000000
H     2.528000000     4.159000000    -3.105000000
H     3.066000000     5.157000000    -2.101000000
O     3.855000000    -0.499000000     7.159000000
H     4.038000000    -0.626000000     8.090000000
H     4.279000000    -1.242000000     6.728000000
O     5.170000000    -1.945000000     1.816000000
H     5.207000000    -1.327000000     1.086000000
H     5.927000000    -2.515000000     1.685000000
O    -1.636000000    -0.188000000     3.212000000
H    -1.210000000     0.053000000     2.390000000
H    -0.916000000    -0.292000000     3.834000000
O    -5.428000000     2.871000000    -1.481000000
H    -5.057000000     3.651000000    -1.068000000
H    -5.109000000     2.903000000    -2.383000000
O     4.339000000     2.347000000    -2.310000000
H     4.439000000     1.703000000    -3.011000000
H     5.227000000     2.665000000    -2.148000000
O    -0.247000000     6.790000000     1.971000000
H    -0.583000000     6.895000000     1.081000000
H    -0.576000000     5.936000000     2.252000000
O    -1.099000000     1.848000000    -7.352000000
H    -1.473000000     1.352000000    -6.624000000
H    -1.822000000     2.389000000    -7.670000000
O    -0.836000000     7.004000000    -0.673000000
H    -1.462000000     6.666000000    -1.313000000
H    -0.201000000     7.495000000    -1.195000000
O    -2.670000000     0.684000000    -5.259000000
H    -3.509000000     0.319000000    -5.538000000
H    -2.624000000     0.491000000    -4.322000000
O     2.793000000    -3.605000000     1.613000000
H     2.648000000    -3.183000000     0.766000000
H     3.228000000    -2.936000000     2.142000000
O     1.384000000     1.970000000     4.776000000
H     2.130000000     2.040000000     4.181000000
H     1.130000000     1.048000000     4.735000000
O    -4.280000000     0.698000000     3.549000000
H    -3.448000000     0.501000000     3.116000000
H    -4.328000000     0.071000000     4.271000000
O    -3.132000000    -2.618000000     2.953000000
H    -3.680000000    -2.544000000     3.734000000
H    -2.402000000    -2.020000000     3.115000000
O    -2.465000000    -6.393000000    -2.081000000
H    -3.047000000    -7.150000000    -2.009000000
H    -3.038000000    -5.637000000    -1.950000000
O     2.117000000    -6.122000000     2.621000000
H     2.005000000    -6.688000000     1.858000000
H     2.314000000    -5.260000000     2.254000000
O    -5.214000000     0.066000000    -1.713000000
H    -5.140000000     0.800000000    -1.102000000
H    -4.346000000    -0.002000000    -2.111000000
O    -6.039000000    -2.532000000    -2.567000000
H    -5.614000000    -1.926000000    -1.959000000
H    -5.617000000    -3.375000000    -2.398000000
