158
-2962.07139
C    -0.607000000     1.224000000    -0.729000000
H    -0.834000000     2.116000000    -1.307000000
C     0.674000000     1.111000000    -0.157000000
H     1.393000000     1.891000000    -0.394000000
C     1.130000000    -0.037000000     0.492000000
H     2.049000000     0.075000000     0.938000000
C     0.290000000    -1.148000000     0.770000000
H     0.760000000    -2.029000000     1.200000000
C    -1.030000000    -1.033000000     0.313000000
H    -1.779000000    -1.810000000     0.440000000
C    -1.523000000     0.152000000    -0.452000000
C    -2.923000000     0.100000000    -1.084000000
O    -3.476000000    -0.975000000    -1.235000000
O    -3.496000000     1.117000000    -1.385000000
O     0.533000000     0.612000000    -4.170000000
H     0.837000000     0.577000000    -3.263000000
H     0.018000000    -0.187000000    -4.281000000
O    -7.281000000    -3.145000000    -2.606000000
H    -7.748000000    -3.912000000    -2.274000000
H    -6.957000000    -2.703000000    -1.822000000
O     2.183000000    -1.086000000    -1.846000000
H     1.587000000    -0.667000000    -1.225000000
H     3.051000000    -0.768000000    -1.596000000
O    -4.766000000    -0.268000000    -3.636000000
H    -5.278000000     0.342000000    -3.105000000
H    -4.126000000    -0.637000000    -3.027000000
O    -1.641000000    -1.417000000    -3.685000000
H    -1.939000000    -2.316000000    -3.826000000
H    -1.879000000    -1.226000000    -2.778000000
O    -1.534000000    -2.664000000     4.817000000
H    -2.342000000    -2.622000000     4.306000000
H    -1.639000000    -3.440000000     5.367000000
O     4.489000000     0.623000000    -1.042000000
H     5.217000000     0.661000000    -0.421000000
H     4.320000000     1.537000000    -1.269000000
O     2.574000000     4.657000000    -3.595000000
H     1.960000000     5.111000000    -3.018000000
H     2.270000000     4.866000000    -4.479000000
O     2.651000000     4.590000000     3.747000000
H     2.851000000     4.939000000     2.879000000
H     3.421000000     4.071000000     3.980000000
O    -0.711000000    -0.058000000     4.816000000
H     0.173000000     0.047000000     5.169000000
H    -0.914000000    -0.983000000     4.951000000
O    -5.617000000    -4.087000000     0.775000000
H    -5.218000000    -4.911000000     1.053000000
H    -5.118000000    -3.829000000    -0.001000000
O    -4.768000000    -0.108000000     2.700000000
H    -5.147000000     0.001000000     3.572000000
H    -4.263000000    -0.919000000     2.758000000
O    -1.898000000    -0.660000000    -6.355000000
H    -1.207000000    -1.256000000    -6.643000000
H    -2.196000000    -1.024000000    -5.521000000
O    -3.285000000     2.710000000     3.301000000
H    -2.402000000     2.389000000     3.117000000
H    -3.864000000     2.038000000     2.940000000
O     4.858000000     2.939000000     4.798000000
H     4.680000000     2.154000000     5.316000000
H     5.440000000     2.640000000     4.100000000
O     2.873000000     5.953000000     1.358000000
H     3.587000000     5.727000000     0.761000000
H     2.443000000     6.702000000     0.945000000
O    -5.121000000    -5.921000000    -1.825000000
H    -4.455000000    -5.419000000    -1.356000000
H    -5.944000000    -5.476000000    -1.622000000
O    -1.274000000    -4.488000000    -0.595000000
H    -0.585000000    -4.692000000    -1.227000000
H    -1.999000000    -4.161000000    -1.128000000
O     1.968000000     0.813000000     4.928000000
H     2.366000000     0.645000000     4.074000000
H     2.693000000     0.740000000     5.549000000
O    -6.619000000     3.306000000    -3.684000000
H    -7.505000000     3.634000000    -3.528000000
H    -6.587000000     3.143000000    -4.627000000
O    -5.641000000    -0.983000000    -6.005000000
H    -5.495000000    -0.507000000    -5.188000000
H    -5.186000000    -1.816000000    -5.882000000
O    -4.870000000     4.257000000    -0.806000000
H    -5.522000000     3.560000000    -0.875000000
H    -4.314000000     3.993000000    -0.072000000
O    -1.176000000    -5.476000000     1.948000000
H    -1.195000000    -5.122000000     1.058000000
H    -0.795000000    -4.775000000     2.477000000
O    -2.418000000     4.918000000    -4.784000000
H    -2.858000000     4.579000000    -4.005000000
H    -1.710000000     4.296000000    -4.949000000
O    -6.146000000    -1.258000000    -0.846000000
H    -5.193000000    -1.228000000    -0.936000000
H    -6.295000000    -1.365000000     0.093000000
O     0.585000000     6.148000000    -2.556000000
H    -0.122000000     5.761000000    -2.039000000
H     0.948000000     6.831000000    -1.992000000
O     4.033000000    -0.018000000     3.070000000
H     4.688000000     0.473000000     2.573000000
H     4.524000000    -0.412000000     3.791000000
O     6.816000000    -0.437000000     1.202000000
H     7.306000000    -0.095000000     0.454000000
H     7.227000000    -0.028000000     1.964000000
O    -0.854000000     1.391000000     2.567000000
H    -0.426000000     1.009000000     1.801000000
H    -0.737000000     0.737000000     3.257000000
O     6.597000000     1.982000000     2.996000000
H     7.073000000     1.175000000     3.192000000
H     7.281000000     2.625000000     2.813000000
O     3.047000000    -4.933000000     0.554000000
H     2.830000000    -4.400000000     1.319000000
H     3.950000000    -4.696000000     0.345000000
O     1.104000000    -2.760000000    -3.797000000
H     1.603000000    -2.139000000    -3.268000000
H     0.861000000    -3.455000000    -3.185000000
O     5.974000000    -2.925000000     0.835000000
H     6.044000000    -3.069000000     1.779000000
H     6.378000000    -2.069000000     0.692000000
O    -4.057000000    -2.906000000     3.448000000
H    -4.922000000    -2.625000000     3.747000000
H    -4.146000000    -3.848000000     3.306000000
O     4.561000000     3.281000000    -1.782000000
H     4.127000000     3.529000000    -2.598000000
H     4.701000000     4.110000000    -1.324000000
O    -1.789000000     5.304000000    -1.357000000
H    -2.363000000     4.618000000    -1.017000000
H    -2.242000000     6.121000000    -1.149000000
O    -3.958000000     3.043000000    -3.213000000
H    -4.911000000     2.995000000    -3.288000000
H    -3.742000000     2.437000000    -2.504000000
O     3.202000000    -2.972000000     2.629000000
H     3.918000000    -3.372000000     3.123000000
H     3.458000000    -2.054000000     2.537000000
O    -0.337000000     4.044000000     3.183000000
H     0.614000000     4.097000000     3.091000000
H    -0.557000000     3.159000000     2.894000000
O    -3.760000000    -3.564000000    -1.502000000
H    -3.710000000    -2.622000000    -1.342000000
H    -3.476000000    -3.669000000    -2.410000000
O    -2.181000000     2.073000000    -5.372000000
H    -3.020000000     2.442000000    -5.098000000
H    -1.969000000     1.432000000    -4.693000000
O     4.785000000    -1.345000000    -3.897000000
H     4.473000000    -0.511000000    -3.547000000
H     5.728000000    -1.223000000    -4.004000000
O     0.743000000    -4.316000000     3.715000000
H     1.503000000    -3.807000000     3.434000000
H     0.264000000    -3.729000000     4.300000000
O     6.234000000    -4.065000000    -1.691000000
H     5.912000000    -3.812000000    -0.826000000
H     5.835000000    -3.433000000    -2.289000000
O    -2.712000000    -3.931000000    -3.914000000
H    -3.307000000    -3.940000000    -4.664000000
H    -2.251000000    -4.768000000    -3.964000000
O    -5.279000000     1.612000000     0.675000000
H    -4.985000000     0.960000000     1.311000000
H    -4.795000000     1.403000000    -0.124000000
O    -6.753000000     3.771000000     2.065000000
H    -6.146000000     3.134000000     1.687000000
H    -6.188000000     4.441000000     2.449000000
O    -8.501000000     0.371000000    -1.577000000
H    -8.815000000     1.159000000    -1.132000000
H    -7.762000000     0.074000000    -1.045000000
