158
-3047.21790
C     1.401000000     0.514000000    -0.139000000
H     2.420000000     0.891000000    -0.176000000
C     0.820000000     0.115000000     1.088000000
H     1.383000000     0.287000000     2.001000000
C    -0.526000000    -0.383000000     1.083000000
H    -1.030000000    -0.627000000     2.059000000
C    -1.098000000    -0.605000000    -0.182000000
H    -2.126000000    -0.951000000    -0.257000000
C    -0.547000000    -0.063000000    -1.341000000
H    -1.017000000    -0.302000000    -2.292000000
C     0.684000000     0.453000000    -1.303000000
C     1.293000000     0.893000000    -2.653000000
O     0.619000000     0.909000000    -3.635000000
O     2.420000000     1.299000000    -2.598000000
O    -1.136000000    -4.639000000    -1.365000000
H    -1.173000000    -5.447000000    -1.878000000
H    -1.326000000    -4.916000000    -0.469000000
O    -4.256000000    -1.458000000    -3.940000000
H    -3.460000000    -1.977000000    -3.826000000
H    -3.978000000    -0.555000000    -3.785000000
O    -3.131000000     1.089000000    -3.758000000
H    -3.618000000     1.671000000    -3.174000000
H    -2.213000000     1.240000000    -3.535000000
O     0.754000000    -1.130000000    -7.593000000
H    -0.150000000    -0.883000000    -7.395000000
H     1.278000000    -0.663000000    -6.942000000
O    -2.987000000     2.289000000     6.842000000
H    -2.223000000     2.230000000     6.269000000
H    -2.634000000     2.582000000     7.682000000
O     2.131000000     4.250000000     1.027000000
H     1.641000000     5.044000000     1.239000000
H     2.233000000     4.278000000     0.076000000
O     4.322000000     0.966000000     1.540000000
H     5.058000000     1.541000000     1.750000000
H     3.630000000     1.232000000     2.146000000
O    -1.947000000     0.270000000    -7.566000000
H    -1.976000000     1.040000000    -6.998000000
H    -2.852000000    -0.042000000    -7.592000000
O    -1.292000000    -2.287000000     5.303000000
H    -1.435000000    -2.012000000     6.208000000
H    -1.060000000    -1.481000000     4.842000000
O     2.002000000     2.114000000     5.981000000
H     2.184000000     1.621000000     5.181000000
H     2.434000000     1.615000000     6.674000000
O    -0.611000000     2.328000000     5.295000000
H     0.185000000     2.271000000     5.824000000
H    -0.298000000     2.334000000     4.391000000
O     2.207000000     3.724000000    -1.573000000
H     1.870000000     4.222000000    -2.318000000
H     2.126000000     2.809000000    -1.841000000
O     3.176000000     2.655000000    -4.713000000
H     2.799000000     2.207000000    -3.955000000
H     3.497000000     3.486000000    -4.364000000
O    -6.446000000    -1.810000000    -2.455000000
H    -7.114000000    -2.299000000    -2.936000000
H    -5.677000000    -1.831000000    -3.025000000
O    -4.471000000     4.205000000     4.574000000
H    -4.085000000     3.479000000     5.064000000
H    -3.906000000     4.303000000     3.808000000
O    -4.673000000     2.200000000    -1.880000000
H    -5.545000000     2.594000000    -1.919000000
H    -4.807000000     1.367000000    -1.428000000
O     2.697000000    -2.626000000     2.895000000
H     3.229000000    -2.615000000     2.099000000
H     1.827000000    -2.893000000     2.598000000
O    -0.133000000    -1.641000000    -4.854000000
H     0.698000000    -2.073000000    -5.050000000
H     0.106000000    -0.904000000    -4.292000000
O     5.084000000     0.489000000    -2.101000000
H     4.154000000     0.624000000    -2.282000000
H     5.351000000     1.272000000    -1.620000000
O     4.118000000    -1.621000000    -4.906000000
H     4.793000000    -1.746000000    -5.574000000
H     3.466000000    -1.061000000    -5.327000000
O     4.775000000    -1.389000000     0.264000000
H     4.547000000    -1.028000000    -0.593000000
H     4.800000000    -0.629000000     0.845000000
O    -2.173000000    -3.298000000    -3.662000000
H    -1.476000000    -2.788000000    -4.075000000
H    -1.825000000    -3.524000000    -2.799000000
O    -3.814000000    -5.843000000    -1.660000000
H    -4.470000000    -5.633000000    -0.996000000
H    -3.177000000    -5.131000000    -1.601000000
O     3.548000000     5.532000000    -4.517000000
H     2.592000000     5.475000000    -4.511000000
H     3.759000000     6.074000000    -3.756000000
O     1.181000000    -3.086000000    -1.358000000
H     0.518000000    -3.761000000    -1.502000000
H     0.713000000    -2.382000000    -0.909000000
O     0.705000000     2.928000000     2.773000000
H    -0.021000000     2.861000000     2.153000000
H     1.400000000     3.365000000     2.281000000
O     4.907000000     2.047000000    -6.975000000
H     4.302000000     2.284000000    -6.271000000
H     4.388000000     1.494000000    -7.560000000
O    -0.832000000     3.248000000    -4.060000000
H    -0.160000000     2.569000000    -4.126000000
H    -0.500000000     3.966000000    -4.598000000
O     2.841000000    -4.681000000     4.846000000
H     2.658000000    -3.861000000     4.388000000
H     3.778000000    -4.645000000     5.037000000
O    -2.684000000    -3.159000000     1.777000000
H    -2.849000000    -3.357000000     2.699000000
H    -1.815000000    -3.523000000     1.607000000
O    -1.878000000    -4.724000000     4.320000000
H    -2.792000000    -4.981000000     4.440000000
H    -1.801000000    -3.888000000     4.781000000
O    -6.491000000     2.059000000     3.982000000
H    -6.088000000     1.560000000     3.271000000
H    -6.358000000     2.975000000     3.739000000
O     4.745000000     4.242000000     1.710000000
H     3.799000000     4.142000000     1.814000000
H     5.009000000     4.794000000     2.447000000
O     6.619000000     1.049000000    -5.117000000
H     5.930000000     0.522000000    -4.710000000
H     6.150000000     1.649000000    -5.697000000
O     3.459000000     4.069000000     4.264000000
H     2.615000000     3.680000000     4.494000000
H     4.094000000     3.602000000     4.808000000
O    -4.266000000     1.785000000     2.061000000
H    -4.117000000     0.859000000     1.872000000
H    -3.388000000     2.167000000     2.095000000
O    -4.361000000    -2.593000000    -0.191000000
H    -3.713000000    -2.639000000     0.512000000
H    -4.654000000    -1.682000000    -0.188000000
O     0.149000000    -3.928000000     2.753000000
H    -0.538000000    -4.292000000     3.312000000
H     0.609000000    -4.694000000     2.409000000
O    -2.098000000     3.881000000    -1.799000000
H    -1.775000000     3.503000000    -2.618000000
H    -3.042000000     3.725000000    -1.819000000
O    -2.393000000     4.062000000     2.861000000
H    -1.657000000     4.458000000     3.327000000
H    -2.132000000     4.085000000     1.940000000
O     2.619000000    -3.847000000    -4.224000000
H     2.268000000    -3.897000000    -3.335000000
H     2.914000000    -2.941000000    -4.314000000
O    -2.417000000     2.771000000    -6.533000000
H    -2.449000000     3.723000000    -6.436000000
H    -2.259000000     2.445000000    -5.647000000
O     3.489000000    -3.866000000    -0.226000000
H     2.734000000    -3.525000000    -0.706000000
H     4.049000000    -3.102000000    -0.086000000
O     4.853000000     3.256000000    -0.945000000
H     3.983000000     3.477000000    -1.278000000
H     4.874000000     3.628000000    -0.063000000
O     2.228000000     0.264000000    -5.605000000
H     2.748000000     1.062000000    -5.514000000
H     1.572000000     0.325000000    -4.911000000
O    -0.903000000     2.582000000     0.598000000
H    -1.095000000     2.969000000    -0.256000000
H    -0.754000000     1.655000000     0.413000000
O    -5.496000000    -0.098000000    -0.650000000
H    -5.920000000    -0.461000000    -1.428000000
H    -6.196000000    -0.046000000     0.001000000
O     3.033000000     0.246000000     4.303000000
H     2.428000000    -0.434000000     4.006000000
H     3.900000000    -0.088000000     4.074000000
