158
-3013.89110
C     0.116000000     0.379000000    -1.417000000
H     0.241000000     0.732000000    -2.437000000
C     1.006000000     0.870000000    -0.453000000
H     1.757000000     1.611000000    -0.715000000
C     0.792000000     0.393000000     0.892000000
H     1.443000000     0.773000000     1.683000000
C    -0.271000000    -0.414000000     1.155000000
H    -0.364000000    -0.895000000     2.125000000
C    -1.182000000    -0.787000000     0.198000000
H    -1.934000000    -1.496000000     0.533000000
C    -0.993000000    -0.419000000    -1.132000000
C    -2.119000000    -0.738000000    -2.133000000
O    -3.111000000    -1.278000000    -1.803000000
O    -2.025000000    -0.345000000    -3.290000000
O     3.167000000     0.787000000    -3.541000000
H     2.417000000     1.352000000    -3.726000000
H     3.803000000     1.003000000    -4.223000000
O     1.293000000     5.079000000    -0.363000000
H     1.324000000     5.372000000     0.547000000
H     0.393000000     4.776000000    -0.487000000
O     2.532000000     3.368000000    -3.925000000
H     2.681000000     4.288000000    -4.146000000
H     2.333000000     2.950000000    -4.763000000
O    -4.231000000    -0.561000000    -4.655000000
H    -3.519000000    -0.404000000    -4.034000000
H    -4.632000000    -1.377000000    -4.358000000
O    -2.946000000     2.174000000    -2.855000000
H    -3.527000000     1.880000000    -2.153000000
H    -2.489000000     1.381000000    -3.135000000
O    -0.366000000    -0.537000000    -5.728000000
H     0.307000000     0.124000000    -5.886000000
H    -0.899000000    -0.173000000    -5.021000000
O     0.638000000    -4.733000000     2.454000000
H    -0.158000000    -4.233000000     2.274000000
H     0.414000000    -5.633000000     2.219000000
O     4.262000000     5.570000000     1.162000000
H     4.097000000     4.628000000     1.198000000
H     3.492000000     5.964000000     1.573000000
O     6.576000000    -0.769000000     1.039000000
H     5.853000000    -0.804000000     0.413000000
H     7.283000000    -0.331000000     0.565000000
O    -5.796000000     0.777000000     1.424000000
H    -6.475000000     1.300000000     1.851000000
H    -5.475000000     0.193000000     2.111000000
O     4.302000000     0.013000000    -0.983000000
H     3.909000000     0.318000000    -1.800000000
H     4.259000000     0.770000000    -0.399000000
O     0.080000000     3.360000000     3.068000000
H    -0.401000000     4.166000000     3.256000000
H    -0.258000000     2.727000000     3.701000000
O     0.421000000    -0.664000000     4.708000000
H     1.122000000    -1.275000000     4.479000000
H    -0.359000000    -1.214000000     4.789000000
O    -3.876000000    -1.517000000    -7.199000000
H    -4.330000000    -2.335000000    -6.997000000
H    -4.160000000    -0.911000000    -6.515000000
O    -4.489000000    -4.394000000    -4.741000000
H    -4.845000000    -4.622000000    -3.882000000
H    -3.637000000    -4.002000000    -4.552000000
O     3.422000000    -1.872000000     1.252000000
H     3.545000000    -1.345000000     0.463000000
H     4.166000000    -1.646000000     1.810000000
O    -4.947000000    -0.914000000     3.447000000
H    -4.804000000    -1.279000000     4.320000000
H    -5.676000000    -1.422000000     3.091000000
O    -1.224000000    -2.281000000    -7.992000000
H    -0.563000000    -1.746000000    -7.553000000
H    -2.058000000    -1.963000000    -7.646000000
O     2.960000000     2.941000000     2.523000000
H     2.863000000     2.203000000     3.125000000
H     2.074000000     3.293000000     2.431000000
O    -1.489000000     2.498000000     1.045000000
H    -1.048000000     2.842000000     1.821000000
H    -1.099000000     1.635000000     0.910000000
O     4.426000000     2.309000000     0.338000000
H     3.954000000     2.583000000     1.125000000
H     5.310000000     2.655000000     0.457000000
O    -1.931000000    -1.585000000     6.939000000
H    -1.931000000    -1.872000000     6.026000000
H    -1.918000000    -0.629000000     6.888000000
O     4.510000000     3.860000000    -2.226000000
H     4.465000000     3.354000000    -1.415000000
H     3.740000000     3.584000000    -2.723000000
O    -6.550000000    -0.547000000    -1.475000000
H    -6.201000000     0.268000000    -1.114000000
H    -6.205000000    -1.230000000    -0.900000000
O    -1.979000000    -3.319000000    -3.937000000
H    -1.895000000    -3.953000000    -3.225000000
H    -2.316000000    -2.529000000    -3.516000000
O    -3.938000000     2.676000000     2.400000000
H    -4.504000000     2.103000000     1.882000000
H    -3.097000000     2.658000000     1.944000000
O     2.890000000     0.970000000     4.726000000
H     2.169000000     0.447000000     4.375000000
H     2.692000000     1.054000000     5.659000000
O    -2.883000000     4.363000000    -4.861000000
H    -3.677000000     4.876000000    -4.708000000
H    -2.680000000     3.976000000    -4.009000000
O    -3.484000000    -4.710000000    -0.860000000
H    -3.476000000    -5.628000000    -1.131000000
H    -2.576000000    -4.423000000    -0.959000000
O    -2.012000000    -4.512000000     2.455000000
H    -2.202000000    -5.277000000     2.998000000
H    -2.682000000    -4.532000000     1.772000000
O    -0.671000000    -4.594000000    -0.967000000
H    -0.183000000    -5.410000000    -0.856000000
H     0.004000000    -3.925000000    -1.082000000
O     3.866000000     5.651000000     3.949000000
H     4.586000000     5.261000000     3.454000000
H     3.143000000     5.032000000     3.848000000
O     4.860000000    -1.221000000     3.696000000
H     4.165000000    -0.691000000     4.086000000
H     5.599000000    -0.619000000     3.609000000
O    -1.385000000     1.282000000     5.307000000
H    -1.076000000     1.986000000     5.877000000
H    -0.635000000     0.692000000     5.228000000
O     5.674000000     1.616000000     5.373000000
H     4.731000000     1.576000000     5.217000000
H     5.756000000     1.969000000     6.259000000
O     1.182000000    -2.599000000    -5.004000000
H     0.576000000    -1.869000000    -5.134000000
H     0.834000000    -3.065000000    -4.244000000
O     4.939000000    -4.054000000     4.232000000
H     4.911000000    -3.107000000     4.093000000
H     5.638000000    -4.181000000     4.874000000
O    -2.119000000    -2.238000000     4.438000000
H    -2.681000000    -1.696000000     3.885000000
H    -1.989000000    -3.041000000     3.933000000
O    -1.547000000     4.271000000    -1.391000000
H    -1.844000000     3.550000000    -1.947000000
H    -1.443000000     3.877000000    -0.525000000
O    -5.058000000     2.009000000    -4.806000000
H    -4.634000000     1.190000000    -5.062000000
H    -4.469000000     2.390000000    -4.155000000
O     1.306000000    -2.472000000    -1.009000000
H     1.923000000    -1.861000000    -1.413000000
H     0.828000000    -1.943000000    -0.371000000
O     2.240000000    -2.501000000     3.699000000
H     1.750000000    -3.273000000     3.414000000
H     2.764000000    -2.255000000     2.937000000
O    -6.511000000    -4.899000000    -2.963000000
H    -6.668000000    -4.242000000    -2.285000000
H    -7.317000000    -4.906000000    -3.480000000
O    -6.442000000    -2.665000000     1.636000000
H    -5.899000000    -2.592000000     0.851000000
H    -6.053000000    -3.387000000     2.130000000
O    -5.052000000    -2.658000000    -0.698000000
H    -4.661000000    -3.510000000    -0.893000000
H    -4.535000000    -2.034000000    -1.207000000
O     3.420000000    -4.507000000     0.351000000
H     3.025000000    -3.652000000     0.523000000
H     2.708000000    -5.132000000     0.494000000
O     4.573000000    -1.893000000    -3.343000000
H     4.973000000    -2.154000000    -2.513000000
H     3.992000000    -1.169000000    -3.110000000
O    -4.275000000     1.016000000    -0.849000000
H    -4.729000000     0.958000000    -0.008000000
H    -3.939000000     0.133000000    -1.001000000
