158
-3043.98717
C    -0.207000000     0.701000000    -1.350000000
H    -0.426000000     1.302000000    -2.229000000
C     0.748000000     1.052000000    -0.353000000
H     1.442000000     1.881000000    -0.465000000
C     0.896000000     0.271000000     0.836000000
H     1.559000000     0.671000000     1.559000000
C     0.118000000    -0.829000000     0.955000000
H     0.182000000    -1.370000000     1.896000000
C    -0.748000000    -1.213000000    -0.059000000
H    -1.317000000    -2.125000000     0.105000000
C    -0.989000000    -0.443000000    -1.155000000
C    -2.085000000    -0.821000000    -2.111000000
O    -2.434000000    -1.994000000    -2.160000000
O    -2.622000000     0.044000000    -2.796000000
O     4.074000000     0.666000000    -1.673000000
H     3.661000000     1.513000000    -1.506000000
H     4.801000000     0.866000000    -2.262000000
O     1.413000000     3.219000000    -2.848000000
H     1.921000000     3.796000000    -3.419000000
H     1.329000000     3.706000000    -2.028000000
O    -4.305000000    -3.244000000    -3.711000000
H    -3.614000000    -2.747000000    -3.273000000
H    -4.195000000    -4.139000000    -3.391000000
O    -2.688000000     2.609000000    -2.402000000
H    -3.409000000     2.352000000    -1.828000000
H    -2.580000000     1.869000000    -2.999000000
O    -2.021000000    -0.025000000    -5.741000000
H    -1.222000000     0.446000000    -5.503000000
H    -2.464000000    -0.179000000    -4.907000000
O     2.319000000     4.785000000    -0.403000000
H     2.131000000     5.724000000    -0.409000000
H     2.573000000     4.597000000     0.500000000
O     6.573000000    -2.737000000     1.403000000
H     5.890000000    -2.067000000     1.364000000
H     6.916000000    -2.783000000     0.511000000
O     4.922000000    -0.660000000     0.648000000
H     4.865000000    -0.587000000    -0.305000000
H     5.047000000     0.239000000     0.950000000
O    -0.759000000    -0.402000000     4.879000000
H    -0.435000000    -1.300000000     4.810000000
H    -1.670000000    -0.454000000     4.590000000
O    -5.172000000    -0.461000000    -5.817000000
H    -5.952000000    -0.951000000    -6.077000000
H    -5.166000000    -0.510000000    -4.861000000
O    -3.194000000     4.685000000    -4.367000000
H    -4.072000000     4.978000000    -4.126000000
H    -3.009000000     3.962000000    -3.767000000
O     2.953000000    -3.153000000     1.537000000
H     3.213000000    -2.841000000     0.670000000
H     2.583000000    -2.383000000     1.968000000
O    -2.812000000    -2.794000000    -6.147000000
H    -3.485000000    -2.968000000    -5.489000000
H    -2.716000000    -1.842000000    -6.146000000
O     0.323000000     3.645000000     3.461000000
H     0.993000000     3.973000000     4.060000000
H    -0.016000000     4.428000000     3.028000000
O    -2.075000000     1.599000000     1.287000000
H    -1.278000000     1.169000000     0.976000000
H    -2.733000000     0.905000000     1.300000000
O     0.345000000     1.528000000    -4.663000000
H     0.510000000     1.826000000    -3.768000000
H     0.005000000     2.301000000    -5.113000000
O     3.501000000     4.643000000     2.449000000
H     3.113000000     4.696000000     3.323000000
H     4.099000000     3.897000000     2.498000000
O     4.407000000     3.386000000    -1.370000000
H     5.186000000     3.645000000    -0.877000000
H     3.776000000     4.086000000    -1.205000000
O    -6.701000000    -1.659000000    -0.441000000
H    -6.985000000    -1.461000000     0.451000000
H    -5.785000000    -1.924000000    -0.347000000
O    -1.599000000    -4.436000000    -1.326000000
H    -0.656000000    -4.574000000    -1.419000000
H    -1.738000000    -3.532000000    -1.608000000
O    -7.897000000     1.074000000    -3.700000000
H    -8.345000000     0.251000000    -3.505000000
H    -6.977000000     0.829000000    -3.798000000
O    -2.369000000     1.989000000     4.066000000
H    -1.581000000     1.885000000     4.599000000
H    -2.058000000     1.931000000     3.163000000
O     5.120000000     3.525000000    -4.078000000
H     4.494000000     4.241000000    -4.182000000
H     5.012000000     3.242000000    -3.170000000
O    -7.069000000    -2.934000000    -2.958000000
H    -7.001000000    -2.243000000    -2.299000000
H    -6.180000000    -3.028000000    -3.299000000
O     1.594000000     1.376000000     4.370000000
H     0.804000000     0.872000000     4.563000000
H     1.279000000     2.145000000     3.896000000
O    -4.016000000    -4.853000000     0.364000000
H    -4.166000000    -5.759000000     0.632000000
H    -3.210000000    -4.886000000    -0.151000000
O    -5.121000000    -2.819000000     2.887000000
H    -5.918000000    -3.300000000     3.106000000
H    -4.569000000    -3.460000000     2.438000000
O     1.185000000    -5.172000000    -2.163000000
H     0.954000000    -6.033000000    -2.513000000
H     1.634000000    -5.361000000    -1.339000000
O    -2.548000000    -6.663000000    -3.161000000
H    -2.077000000    -6.043000000    -2.604000000
H    -3.438000000    -6.673000000    -2.809000000
O     6.885000000     1.573000000     0.588000000
H     6.598000000     2.432000000     0.279000000
H     6.824000000     1.629000000     1.541000000
O     3.089000000    -1.913000000     4.434000000
H     2.276000000    -1.414000000     4.358000000
H     3.561000000    -1.494000000     5.154000000
O    -1.376000000     0.213000000     7.445000000
H    -0.619000000     0.477000000     7.968000000
H    -1.103000000     0.356000000     6.539000000
O     4.066000000     1.795000000     5.606000000
H     3.148000000     1.661000000     5.370000000
H     4.430000000     0.912000000     5.663000000
O    -0.326000000    -3.686000000    -5.031000000
H    -0.217000000    -3.052000000    -5.740000000
H    -1.202000000    -3.511000000    -4.687000000
O     4.236000000    -4.652000000     3.286000000
H     3.812000000    -4.156000000     2.586000000
H     4.641000000    -3.986000000     3.841000000
O    -4.356000000     0.018000000     1.683000000
H    -5.094000000    -0.067000000     2.286000000
H    -4.233000000    -0.863000000     1.330000000
O     5.078000000     2.380000000     2.802000000
H     5.900000000     2.805000000     3.048000000
H     4.670000000     2.147000000     3.635000000
O     2.747000000    -0.044000000    -5.088000000
H     3.256000000     0.356000000    -4.382000000
H     1.875000000     0.340000000    -5.002000000
O    -2.100000000     4.201000000    -0.057000000
H    -1.715000000     3.888000000    -0.876000000
H    -1.859000000     3.538000000     0.590000000
O    -5.253000000     0.001000000    -2.944000000
H    -4.319000000     0.174000000    -3.062000000
H    -5.390000000     0.060000000    -1.998000000
O     2.610000000    -1.987000000    -1.559000000
H     1.654000000    -1.974000000    -1.539000000
H     2.862000000    -1.063000000    -1.570000000
O    -0.732000000    -3.000000000     4.628000000
H    -0.161000000    -3.734000000     4.397000000
H    -1.319000000    -3.355000000     5.295000000
O    -4.105000000    -2.232000000    -0.136000000
H    -4.024000000    -3.155000000     0.102000000
H    -3.512000000    -2.123000000    -0.880000000
O    -0.766000000     4.095000000    -5.773000000
H    -0.214000000     4.820000000    -5.479000000
H    -1.600000000     4.231000000    -5.322000000
O    -5.104000000     2.267000000    -5.996000000
H    -4.903000000     1.354000000    -6.200000000
H    -4.450000000     2.515000000    -5.342000000
O     2.266000000    -5.473000000     0.160000000
H     2.630000000    -4.810000000     0.747000000
H     1.785000000    -6.066000000     0.736000000
O     2.822000000     4.383000000     5.041000000
H     3.674000000     4.753000000     5.272000000
H     2.584000000     3.841000000     5.793000000
O    -5.136000000     1.614000000    -0.591000000
H    -5.070000000     2.546000000    -0.384000000
H    -4.818000000     1.171000000     0.196000000
