158
-3029.81330
C     0.212000000    -0.434000000    -1.360000000
H     0.490000000    -0.762000000    -2.358000000
C     1.129000000     0.217000000    -0.620000000
H     2.150000000     0.417000000    -0.934000000
C     0.739000000     0.693000000     0.680000000
H     1.427000000     1.103000000     1.411000000
C    -0.551000000     0.344000000     1.184000000
H    -0.693000000     0.674000000     2.210000000
C    -1.482000000    -0.334000000     0.361000000
H    -2.395000000    -0.581000000     0.896000000
C    -1.125000000    -0.722000000    -0.954000000
C    -1.966000000    -1.552000000    -1.780000000
O    -3.070000000    -1.939000000    -1.339000000
O    -1.557000000    -1.855000000    -2.886000000
O     4.048000000     2.114000000    -3.379000000
H     3.945000000     1.166000000    -3.295000000
H     3.155000000     2.445000000    -3.469000000
O    -2.886000000    -4.700000000    -2.520000000
H    -2.691000000    -3.947000000    -1.962000000
H    -2.138000000    -4.757000000    -3.115000000
O    -3.755000000     0.128000000    -5.707000000
H    -3.913000000    -0.691000000    -5.237000000
H    -2.851000000     0.357000000    -5.492000000
O    -0.849000000     0.255000000    -4.391000000
H    -0.584000000     0.981000000    -3.825000000
H    -0.882000000    -0.503000000    -3.808000000
O     0.139000000     4.459000000     1.949000000
H     0.271000000     5.400000000     2.067000000
H     0.200000000     4.096000000     2.832000000
O    -0.006000000     3.692000000    -0.435000000
H    -0.015000000     3.980000000     0.477000000
H     0.046000000     2.737000000    -0.384000000
O    -2.870000000    -1.263000000     6.355000000
H    -2.079000000    -1.612000000     6.765000000
H    -2.732000000    -1.393000000     5.417000000
O     1.535000000    -2.039000000    -4.816000000
H     1.265000000    -1.162000000    -5.087000000
H     2.312000000    -1.895000000    -4.275000000
O     1.913000000     2.882000000     6.396000000
H     2.103000000     3.630000000     6.962000000
H     1.474000000     3.263000000     5.635000000
O    -3.880000000     2.038000000     2.078000000
H    -4.592000000     2.615000000     2.352000000
H    -3.549000000     1.662000000     2.894000000
O     1.687000000     3.325000000    -3.143000000
H     1.389000000     3.674000000    -2.303000000
H     0.891000000     3.260000000    -3.671000000
O     3.251000000     4.232000000     0.552000000
H     3.430000000     4.356000000    -0.380000000
H     2.314000000     4.408000000     0.641000000
O    -5.391000000    -0.463000000    -1.761000000
H    -5.929000000    -0.985000000    -1.166000000
H    -4.497000000    -0.766000000    -1.603000000
O     7.752000000     2.101000000     1.949000000
H     7.745000000     1.540000000     2.724000000
H     6.875000000     2.483000000     1.921000000
O     4.030000000    -1.660000000    -3.316000000
H     4.417000000    -1.997000000    -2.508000000
H     4.736000000    -1.715000000    -3.960000000
O    -1.570000000    -3.587000000     1.745000000
H    -2.389000000    -3.560000000     1.250000000
H    -1.486000000    -4.500000000     2.020000000
O    -6.776000000     0.077000000     1.807000000
H    -6.152000000     0.065000000     2.533000000
H    -6.736000000    -0.807000000     1.442000000
O    -2.852000000     1.636000000     6.940000000
H    -2.982000000     0.718000000     7.177000000
H    -3.238000000     1.715000000     6.067000000
O     6.125000000     3.256000000    -1.197000000
H     5.536000000     2.697000000    -1.704000000
H     5.731000000     4.127000000    -1.248000000
O    -7.036000000    -1.821000000    -0.163000000
H    -7.840000000    -1.396000000     0.135000000
H    -7.148000000    -2.741000000     0.079000000
O     2.753000000     0.861000000     4.861000000
H     3.656000000     0.808000000     5.174000000
H     2.306000000     1.402000000     5.512000000
O    -4.095000000    -3.724000000     0.113000000
H    -4.213000000    -4.338000000    -0.612000000
H    -3.680000000    -2.960000000    -0.285000000
O    -5.135000000    -3.729000000     2.714000000
H    -4.853000000    -3.527000000     1.822000000
H    -6.087000000    -3.807000000     2.653000000
O     0.595000000     0.663000000    -6.841000000
H     0.437000000     1.512000000    -7.254000000
H    -0.146000000     0.544000000    -6.247000000
O    -7.226000000    -3.560000000    -2.378000000
H    -8.144000000    -3.810000000    -2.479000000
H    -7.251000000    -2.766000000    -1.844000000
O    -5.146000000    -4.800000000    -3.679000000
H    -4.480000000    -4.791000000    -2.991000000
H    -5.973000000    -4.682000000    -3.212000000
O     3.761000000    -0.516000000     2.417000000
H     3.469000000     0.175000000     3.011000000
H     4.575000000    -0.838000000     2.805000000
O     1.290000000    -1.371000000     4.151000000
H     1.905000000    -0.679000000     4.396000000
H     1.640000000    -1.724000000     3.334000000
O     5.231000000    -3.441000000     2.710000000
H     4.926000000    -4.311000000     2.968000000
H     4.497000000    -3.065000000     2.225000000
O    -0.393000000     2.532000000     7.718000000
H     0.265000000     2.486000000     7.025000000
H    -1.136000000     2.034000000     7.377000000
O     5.489000000    -3.020000000    -1.171000000
H     4.680000000    -3.031000000    -0.660000000
H     5.728000000    -3.942000000    -1.261000000
O    -0.548000000    -3.967000000    -4.047000000
H    -1.128000000    -3.346000000    -3.608000000
H     0.174000000    -3.431000000    -4.374000000
O     6.948000000    -0.786000000    -0.407000000
H     6.228000000    -0.203000000    -0.166000000
H     6.520000000    -1.609000000    -0.643000000
O    -3.502000000     0.800000000     4.420000000
H    -4.378000000     0.602000000     4.750000000
H    -3.157000000    -0.045000000     4.134000000
O     5.095000000     3.254000000     2.382000000
H     4.629000000     3.142000000     3.210000000
H     4.514000000     3.799000000     1.851000000
O    -3.264000000     5.509000000     1.479000000
H    -2.799000000     4.902000000     2.055000000
H    -2.822000000     5.424000000     0.634000000
O     5.488000000     1.011000000     5.245000000
H     6.381000000     1.018000000     4.901000000
H     5.534000000     1.536000000     6.044000000
O    -4.191000000    -2.156000000    -4.313000000
H    -3.510000000    -2.087000000    -3.644000000
H    -4.663000000    -2.960000000    -4.093000000
O     0.754000000    -2.456000000     1.159000000
H     0.561000000    -1.615000000     0.745000000
H    -0.100000000    -2.788000000     1.436000000
O    -7.084000000    -0.701000000    -4.051000000
H    -6.296000000    -1.098000000    -3.679000000
H    -6.800000000     0.165000000    -4.345000000
O     0.400000000     4.423000000     4.720000000
H     0.844000000     5.260000000     4.853000000
H    -0.531000000     4.646000000     4.705000000
O    -1.654000000    -1.453000000     3.673000000
H    -0.706000000    -1.378000000     3.782000000
H    -1.763000000    -2.030000000     2.917000000
O    -2.491000000     4.600000000    -1.030000000
H    -1.567000000     4.352000000    -1.029000000
H    -2.935000000     3.869000000    -1.461000000
O     4.749000000     0.883000000     0.224000000
H     4.530000000     1.753000000     0.559000000
H     4.232000000     0.282000000     0.762000000
O     3.385000000    -2.457000000     0.344000000
H     2.689000000    -3.114000000     0.326000000
H     3.043000000    -1.762000000     0.906000000
O    -1.276000000    -6.552000000    -4.440000000
H    -0.944000000    -5.665000000    -4.306000000
H    -2.010000000    -6.445000000    -5.044000000
O    -0.895000000     3.477000000    -4.128000000
H    -1.787000000     3.244000000    -3.870000000
H    -1.006000000     4.034000000    -4.899000000
O    -3.787000000     1.895000000    -1.002000000
H    -3.655000000     1.832000000    -0.056000000
H    -4.018000000     1.006000000    -1.271000000
