158
-3054.27077
C     0.514000000     0.371000000    -1.334000000
H     0.879000000     0.847000000    -2.240000000
C     0.812000000     1.035000000    -0.132000000
H     1.342000000     1.973000000     0.013000000
C     0.263000000     0.551000000     1.050000000
H     0.467000000     1.034000000     2.001000000
C    -0.447000000    -0.641000000     1.028000000
H    -0.894000000    -0.981000000     1.959000000
C    -0.700000000    -1.305000000    -0.175000000
H    -1.386000000    -2.142000000    -0.073000000
C    -0.231000000    -0.818000000    -1.370000000
C    -0.724000000    -1.334000000    -2.675000000
O    -1.667000000    -2.078000000    -2.626000000
O    -0.107000000    -1.194000000    -3.708000000
O    -4.040000000    -3.490000000    -1.534000000
H    -3.306000000    -2.964000000    -1.851000000
H    -3.629000000    -4.204000000    -1.046000000
O    -0.313000000    -1.423000000    -8.619000000
H     0.446000000    -0.839000000    -8.620000000
H    -0.511000000    -1.556000000    -7.692000000
O     0.674000000     5.398000000     6.426000000
H     0.968000000     5.355000000     7.336000000
H     0.077000000     4.656000000     6.333000000
O    -2.470000000    -3.674000000    -4.653000000
H    -2.163000000    -3.142000000    -3.919000000
H    -2.176000000    -4.561000000    -4.446000000
O    -0.747000000     3.554000000     0.134000000
H    -0.795000000     4.132000000     0.895000000
H    -0.016000000     2.965000000     0.326000000
O     1.850000000    -0.201000000     3.915000000
H     2.548000000     0.024000000     4.531000000
H     1.113000000    -0.454000000     4.471000000
O     2.573000000    -4.833000000    -5.236000000
H     2.687000000    -4.241000000    -5.979000000
H     3.396000000    -4.769000000    -4.751000000
O    -2.315000000    -5.161000000    -6.847000000
H    -1.449000000    -5.423000000    -6.532000000
H    -2.712000000    -4.706000000    -6.104000000
O     0.121000000     3.258000000     3.015000000
H    -0.683000000     3.776000000     2.971000000
H    -0.168000000     2.389000000     3.294000000
O    -4.767000000     1.077000000     0.644000000
H    -4.770000000     0.178000000     0.315000000
H    -4.315000000     1.579000000    -0.034000000
O     0.943000000     4.593000000    -1.994000000
H     0.873000000     5.547000000    -2.024000000
H     0.225000000     4.318000000    -1.424000000
O    -0.500000000    -5.838000000     3.707000000
H    -0.477000000    -5.824000000     2.750000000
H     0.237000000    -6.397000000     3.955000000
O     3.998000000     3.864000000    -1.315000000
H     3.373000000     4.475000000    -1.705000000
H     3.734000000     3.805000000    -0.397000000
O     0.836000000    -4.187000000    -0.914000000
H     0.619000000    -4.017000000    -1.831000000
H     1.102000000    -5.106000000    -0.897000000
O    -5.208000000    -1.768000000     0.221000000
H    -6.080000000    -1.458000000    -0.020000000
H    -5.043000000    -2.503000000    -0.371000000
O     5.642000000     2.226000000     1.684000000
H     4.977000000     1.670000000     2.091000000
H     5.560000000     3.066000000     2.135000000
O     4.652000000    -0.587000000    -4.927000000
H     3.704000000    -0.471000000    -4.981000000
H     5.013000000     0.176000000    -5.380000000
O    -1.427000000    -3.805000000     5.135000000
H    -1.039000000    -4.623000000     4.825000000
H    -2.326000000    -3.827000000     4.804000000
O    -1.198000000     1.203000000     4.421000000
H    -2.079000000     1.178000000     4.049000000
H    -1.071000000     0.330000000     4.793000000
O     3.699000000    -3.216000000    -0.382000000
H     3.637000000    -2.609000000     0.356000000
H     2.792000000    -3.349000000    -0.659000000
O     0.026000000     6.279000000     4.007000000
H    -0.798000000     5.870000000     3.742000000
H     0.161000000     5.986000000     4.908000000
O    -3.453000000    -2.063000000     2.381000000
H    -3.236000000    -1.231000000     2.801000000
H    -4.007000000    -1.819000000     1.639000000
O     1.365000000     3.072000000    -4.209000000
H     0.722000000     3.597000000    -4.685000000
H     1.476000000     3.528000000    -3.374000000
O     4.773000000     4.448000000     2.991000000
H     4.702000000     5.321000000     3.378000000
H     3.873000000     4.210000000     2.767000000
O    -1.514000000    -1.482000000    -5.900000000
H    -1.721000000    -2.402000000    -5.735000000
H    -0.876000000    -1.255000000    -5.223000000
O     4.669000000    -1.505000000     2.316000000
H     4.298000000    -0.646000000     2.116000000
H     4.040000000    -2.128000000     1.952000000
O     2.480000000     2.362000000     4.862000000
H     1.756000000     2.977000000     4.747000000
H     2.770000000     2.164000000     3.971000000
O    -4.978000000    -2.619000000    -6.506000000
H    -5.274000000    -2.052000000    -7.218000000
H    -4.046000000    -2.419000000    -6.412000000
O     0.538000000    -3.775000000    -3.603000000
H     0.358000000    -2.848000000    -3.762000000
H     1.167000000    -4.016000000    -4.283000000
O     5.636000000     1.852000000    -0.998000000
H     5.611000000     1.837000000    -0.041000000
H     5.021000000     2.543000000    -1.243000000
O     3.202000000     1.426000000     7.157000000
H     2.519000000     0.795000000     7.384000000
H     2.940000000     1.766000000     6.302000000
O    -2.537000000    -6.046000000    -1.055000000
H    -1.875000000    -6.326000000    -0.423000000
H    -2.163000000    -6.268000000    -1.908000000
O     3.259000000     0.761000000     1.887000000
H     2.776000000     1.493000000     1.503000000
H     2.633000000     0.347000000     2.481000000
O     3.909000000     3.892000000    -5.115000000
H     3.112000000     3.400000000    -4.918000000
H     4.497000000     3.695000000    -4.385000000
O    -3.362000000    -4.571000000     3.154000000
H    -3.478000000    -3.660000000     2.885000000
H    -2.445000000    -4.763000000     2.961000000
O    -3.845000000     0.936000000     3.016000000
H    -4.199000000     1.721000000     3.433000000
H    -4.317000000     0.871000000     2.186000000
O    -5.794000000    -3.118000000    -3.750000000
H    -5.397000000    -3.037000000    -4.617000000
H    -5.057000000    -3.051000000    -3.142000000
O     2.181000000    -2.628000000     2.131000000
H     1.911000000    -1.903000000     2.694000000
H     1.415000000    -3.200000000     2.092000000
O    -0.934000000     3.182000000     6.167000000
H    -0.787000000     2.700000000     6.981000000
H    -0.808000000     2.531000000     5.477000000
O    -2.372000000     4.721000000     3.548000000
H    -3.024000000     4.738000000     2.847000000
H    -2.875000000     4.887000000     4.346000000
O    -0.302000000    -1.207000000     5.459000000
H    -0.768000000    -1.116000000     6.290000000
H    -0.486000000    -2.104000000     5.178000000
O    -2.626000000     3.131000000    -2.031000000
H    -2.111000000     3.204000000    -1.228000000
H    -2.727000000     2.189000000    -2.166000000
O    -0.520000000    -4.353000000     1.412000000
H     0.234000000    -4.238000000     0.833000000
H    -1.132000000    -3.666000000     1.149000000
O    -1.039000000    -5.783000000    -3.751000000
H    -0.422000000    -6.512000000    -3.687000000
H    -0.492000000    -5.000000000    -3.685000000
O     1.832000000     0.313000000    -4.922000000
H     1.160000000    -0.245000000    -4.530000000
H     1.443000000     1.187000000    -4.931000000
O     2.356000000     4.436000000     1.511000000
H     1.508000000     4.268000000     1.923000000
H     2.469000000     5.384000000     1.573000000
O    -3.215000000     0.493000000    -2.443000000
H    -4.154000000     0.443000000    -2.623000000
H    -2.903000000    -0.406000000    -2.543000000
O    -5.536000000    -0.583000000    -3.504000000
H    -5.947000000    -1.430000000    -3.675000000
H    -5.333000000    -0.236000000    -4.373000000
