158
-3073.07490
C     0.894000000     0.015000000    -1.240000000
H     1.606000000     0.263000000    -2.023000000
C     1.253000000     0.377000000     0.077000000
H     2.258000000     0.773000000     0.194000000
C     0.368000000     0.192000000     1.172000000
H     0.713000000     0.469000000     2.221000000
C    -0.882000000    -0.371000000     0.917000000
H    -1.524000000    -0.700000000     1.730000000
C    -1.298000000    -0.617000000    -0.407000000
H    -2.312000000    -0.993000000    -0.513000000
C    -0.475000000    -0.372000000    -1.490000000
C    -1.014000000    -0.359000000    -2.910000000
O    -2.232000000    -0.271000000    -3.155000000
O    -0.244000000    -0.462000000    -3.854000000
O    -4.946000000    -0.589000000    -2.367000000
H    -4.012000000    -0.382000000    -2.342000000
H    -5.262000000    -0.171000000    -3.168000000
O     0.762000000    -1.640000000    -7.942000000
H     0.762000000    -0.694000000    -7.800000000
H     0.040000000    -1.963000000    -7.403000000
O     0.225000000     4.185000000     6.067000000
H     0.260000000     4.723000000     6.858000000
H    -0.521000000     3.603000000     6.206000000
O    -2.733000000     1.110000000    -5.538000000
H    -2.478000000     0.579000000    -4.783000000
H    -2.087000000     0.894000000    -6.211000000
O     3.315000000    -3.001000000     4.445000000
H     3.894000000    -2.621000000     5.106000000
H     3.253000000    -2.328000000     3.767000000
O     2.431000000    -4.798000000     2.541000000
H     1.587000000    -4.355000000     2.629000000
H     2.984000000    -4.397000000     3.212000000
O    -0.126000000     3.207000000    -0.294000000
H    -0.741000000     3.377000000     0.419000000
H    -0.065000000     2.253000000    -0.336000000
O     1.810000000    -1.354000000     7.161000000
H     2.737000000    -1.591000000     7.202000000
H     1.808000000    -0.449000000     6.849000000
O     0.797000000     3.861000000     2.923000000
H     0.739000000     3.274000000     2.169000000
H    -0.113000000     4.062000000     3.141000000
O    -3.966000000     2.606000000    -0.479000000
H    -3.509000000     2.627000000    -1.320000000
H    -3.938000000     3.511000000    -0.169000000
O     1.830000000    -4.773000000     5.876000000
H     2.418000000    -4.891000000     6.622000000
H     2.158000000    -3.989000000     5.435000000
O     1.805000000     4.056000000    -2.061000000
H     1.773000000     4.997000000    -1.890000000
H     1.183000000     3.678000000    -1.439000000
O    -4.053000000    -3.805000000     0.613000000
H    -3.545000000    -3.355000000    -0.062000000
H    -4.940000000    -3.847000000     0.257000000
O     3.838000000     3.463000000     0.020000000
H     3.265000000     3.705000000    -0.709000000
H     3.881000000     4.251000000     0.561000000
O     0.447000000    -3.855000000    -2.318000000
H     1.221000000    -3.430000000    -2.687000000
H     0.662000000    -4.787000000    -2.319000000
O    -6.035000000    -1.159000000     0.293000000
H    -6.783000000    -0.564000000     0.341000000
H    -5.719000000    -1.075000000    -0.607000000
O     4.013000000     1.568000000    -5.785000000
H     3.365000000     2.131000000    -5.360000000
H     3.679000000     1.448000000    -6.674000000
O     3.890000000    -1.117000000    -5.751000000
H     3.854000000    -0.171000000    -5.609000000
H     4.813000000    -1.298000000    -5.928000000
O    -0.731000000    -3.860000000     3.069000000
H    -0.734000000    -4.241000000     2.191000000
H    -1.348000000    -4.399000000     3.565000000
O     5.693000000    -1.480000000    -0.405000000
H     5.048000000    -1.999000000    -0.886000000
H     6.394000000    -1.322000000    -1.038000000
O    -2.390000000     1.002000000     3.872000000
H    -3.046000000     0.933000000     3.178000000
H    -2.213000000     0.096000000     4.126000000
O     3.279000000    -2.542000000    -1.322000000
H     2.914000000    -2.376000000    -2.191000000
H     2.580000000    -2.996000000    -0.851000000
O    -1.543000000    -4.657000000     0.756000000
H    -1.545000000    -5.602000000     0.911000000
H    -2.469000000    -4.419000000     0.712000000
O    -4.089000000     0.898000000     1.506000000
H    -4.058000000     1.711000000     1.001000000
H    -4.431000000     0.248000000     0.892000000
O     2.490000000     3.526000000    -4.652000000
H     1.613000000     3.176000000    -4.810000000
H     2.471000000     3.816000000    -3.740000000
O    -1.252000000    -1.520000000    -5.998000000
H    -1.137000000    -2.469000000    -6.037000000
H    -1.252000000    -1.317000000    -5.062000000
O    -6.239000000    -4.016000000    -1.322000000
H    -6.767000000    -3.330000000    -1.730000000
H    -5.343000000    -3.827000000    -1.602000000
O     5.694000000     0.226000000     2.760000000
H     5.772000000     0.894000000     3.441000000
H     4.753000000     0.151000000     2.605000000
O     2.626000000     3.486000000     4.979000000
H     2.058000000     3.701000000     4.238000000
H     2.245000000     3.960000000     5.718000000
O    -0.095000000    -2.973000000     6.756000000
H     0.559000000    -2.295000000     6.924000000
H     0.412000000    -3.725000000     6.451000000
O     2.329000000    -2.009000000    -3.751000000
H     1.524000000    -1.506000000    -3.872000000
H     2.933000000    -1.657000000    -4.405000000
O     6.405000000     2.701000000    -1.707000000
H     6.716000000     2.457000000    -0.836000000
H     5.624000000     3.230000000    -1.544000000
O     1.268000000     1.290000000     6.604000000
H     0.407000000     1.383000000     7.011000000
H     1.403000000     2.114000000     6.137000000
O     0.940000000     1.552000000    -8.758000000
H     0.067000000     1.678000000    -9.131000000
H     0.794000000     1.518000000    -7.813000000
O    -3.627000000    -3.021000000    -1.920000000
H    -3.085000000    -3.446000000    -2.584000000
H    -4.023000000    -2.277000000    -2.374000000
O     5.150000000     2.304000000     4.573000000
H     5.287000000     2.120000000     5.503000000
H     4.297000000     2.737000000     4.538000000
O    -5.341000000     0.995000000    -4.687000000
H    -4.410000000     1.061000000    -4.902000000
H    -5.630000000     1.903000000    -4.594000000
O     3.664000000    -1.784000000     1.686000000
H     2.952000000    -2.061000000     1.110000000
H     4.386000000    -1.576000000     1.092000000
O    -1.884000000     2.211000000     6.422000000
H    -2.713000000     2.173000000     6.899000000
H    -2.098000000     1.893000000     5.545000000
O    -1.872000000     2.970000000     1.915000000
H    -2.643000000     2.646000000     1.449000000
H    -1.775000000     2.375000000     2.658000000
O    -1.054000000    -1.347000000     4.953000000
H    -0.784000000    -1.664000000     4.091000000
H    -0.942000000    -2.101000000     5.532000000
O    -1.324000000     4.987000000    -2.171000000
H    -0.575000000     4.875000000    -1.586000000
H    -1.685000000     4.106000000    -2.270000000
O     1.230000000    -2.837000000     0.643000000
H     0.686000000    -3.571000000     0.359000000
H     0.706000000    -2.060000000     0.448000000
O    -1.998000000    -4.400000000    -3.589000000
H    -1.550000000    -5.098000000    -4.066000000
H    -1.293000000    -3.902000000    -3.176000000
O     0.637000000     1.030000000    -5.831000000
H     0.510000000     0.473000000    -5.063000000
H     0.156000000     1.832000000    -5.628000000
O     2.668000000     5.751000000     1.887000000
H     2.507000000     5.126000000     2.594000000
H     1.809000000     6.133000000     1.705000000
O    -2.889000000     2.464000000    -2.826000000
H    -2.668000000     2.754000000    -3.711000000
H    -2.725000000     1.521000000    -2.835000000
O    -6.160000000    -1.676000000     3.694000000
H    -5.700000000    -1.213000000     4.394000000
H    -5.737000000    -1.374000000     2.889000000
