158
-3035.45068
C     0.923000000     1.191000000    -0.154000000
H     1.639000000     2.005000000    -0.071000000
C     0.657000000     0.452000000     0.965000000
H     1.233000000     0.626000000     1.871000000
C    -0.238000000    -0.592000000     1.068000000
H    -0.399000000    -1.072000000     1.965000000
C    -0.853000000    -1.027000000    -0.112000000
H    -1.511000000    -1.887000000    -0.199000000
C    -0.606000000    -0.197000000    -1.270000000
H    -1.188000000    -0.458000000    -2.150000000
C     0.297000000     0.826000000    -1.318000000
C     0.410000000     1.561000000    -2.602000000
O    -0.039000000     1.187000000    -3.623000000
O     1.055000000     2.582000000    -2.576000000
O     1.463000000    -4.083000000    -0.865000000
H     1.343000000    -5.002000000    -1.103000000
H     0.576000000    -3.722000000    -0.849000000
O    -4.007000000     0.125000000    -4.111000000
H    -4.679000000    -0.415000000    -4.525000000
H    -3.209000000    -0.064000000    -4.605000000
O    -2.370000000     2.516000000    -3.748000000
H    -2.483000000     2.152000000    -2.869000000
H    -1.464000000     2.307000000    -3.978000000
O     2.765000000    -4.175000000     6.026000000
H     3.046000000    -3.953000000     5.138000000
H     1.929000000    -3.720000000     6.133000000
O     1.781000000     5.557000000    -7.071000000
H     1.144000000     6.206000000    -7.369000000
H     1.428000000     5.239000000    -6.239000000
O     0.956000000     1.604000000    -6.535000000
H     0.320000000     2.319000000    -6.514000000
H     1.115000000     1.398000000    -5.614000000
O     1.566000000     4.289000000     2.118000000
H     1.344000000     5.071000000     2.624000000
H     1.150000000     4.429000000     1.268000000
O    -1.116000000     3.508000000    -6.356000000
H    -1.883000000     4.080000000    -6.315000000
H    -0.521000000     3.858000000    -5.693000000
O    -2.294000000    -1.836000000     3.528000000
H    -2.567000000    -2.169000000     4.383000000
H    -1.791000000    -1.046000000     3.728000000
O     2.036000000     0.652000000     6.501000000
H     2.524000000     0.477000000     5.696000000
H     2.702000000     0.660000000     7.188000000
O    -0.678000000     0.334000000     4.465000000
H    -0.889000000     0.846000000     5.246000000
H    -0.432000000     0.987000000     3.810000000
O     0.930000000     4.443000000    -4.461000000
H     1.005000000     3.825000000    -3.734000000
H     1.166000000     5.289000000    -4.082000000
O    -2.415000000     1.392000000    -7.419000000
H    -1.973000000     2.010000000    -6.837000000
H    -3.343000000     1.620000000    -7.351000000
O     1.093000000    -6.332000000     4.288000000
H     1.707000000    -5.624000000     4.482000000
H     0.236000000    -5.906000000     4.260000000
O    -3.866000000     1.143000000    -1.552000000
H    -4.793000000     1.240000000    -1.334000000
H    -3.864000000     0.843000000    -2.461000000
O     3.816000000    -2.161000000     3.959000000
H     4.463000000    -2.827000000     3.725000000
H     3.100000000    -2.295000000     3.338000000
O    -1.105000000    -0.896000000    -5.057000000
H    -0.861000000    -0.763000000    -5.973000000
H    -0.624000000    -0.218000000    -4.581000000
O     2.995000000     1.607000000    -4.097000000
H     2.249000000     2.114000000    -3.776000000
H     3.707000000     1.823000000    -3.495000000
O     1.578000000    -4.082000000    -3.703000000
H     1.460000000    -3.141000000    -3.834000000
H     1.538000000    -4.198000000    -2.754000000
O    -1.033000000    -4.144000000     1.544000000
H    -1.892000000    -3.762000000     1.723000000
H    -1.145000000    -5.078000000     1.718000000
O    -2.851000000    -2.750000000     6.071000000
H    -3.434000000    -3.279000000     6.617000000
H    -2.691000000    -1.960000000     6.587000000
O    -2.802000000    -3.034000000    -4.484000000
H    -2.158000000    -2.386000000    -4.770000000
H    -2.445000000    -3.384000000    -3.668000000
O    -2.008000000    -3.923000000    -1.427000000
H    -2.293000000    -4.029000000    -0.519000000
H    -1.839000000    -4.815000000    -1.730000000
O     2.651000000    -1.601000000    -0.835000000
H     2.309000000    -2.478000000    -0.664000000
H     1.992000000    -1.011000000    -0.470000000
O    -0.967000000     2.541000000     2.825000000
H    -1.636000000     2.348000000     2.168000000
H    -0.433000000     3.230000000     2.428000000
O     1.542000000     4.593000000    -0.777000000
H     1.162000000     3.830000000    -1.212000000
H     1.008000000     5.329000000    -1.076000000
O    -0.764000000    -4.881000000     5.533000000
H    -0.916000000    -4.908000000     6.478000000
H    -0.325000000    -4.044000000     5.385000000
O     4.852000000    -0.941000000    -3.382000000
H     4.169000000    -1.560000000    -3.123000000
H     4.387000000    -0.116000000    -3.523000000
O    -5.603000000    -3.602000000    -2.639000000
H    -4.694000000    -3.904000000    -2.626000000
H    -5.690000000    -3.070000000    -1.848000000
O     3.096000000    -4.669000000     3.260000000
H     2.368000000    -4.115000000     2.979000000
H     3.644000000    -4.757000000     2.480000000
O    -3.589000000    -4.677000000     3.309000000
H    -3.819000000    -5.240000000     4.049000000
H    -3.118000000    -3.943000000     3.705000000
O     0.304000000    -2.196000000     5.725000000
H     0.070000000    -1.383000000     5.277000000
H     0.030000000    -2.058000000     6.631000000
O     3.972000000     3.758000000     0.023000000
H     3.101000000     4.149000000    -0.040000000
H     4.066000000     3.531000000     0.948000000
O     2.922000000     2.894000000     4.473000000
H     3.128000000     1.959000000     4.475000000
H     2.497000000     3.043000000     3.628000000
O    -4.120000000     1.301000000     4.127000000
H    -4.244000000     2.141000000     3.685000000
H    -4.303000000     0.646000000     3.454000000
O    -3.935000000    -3.771000000     0.655000000
H    -3.975000000    -3.984000000     1.588000000
H    -4.674000000    -3.180000000     0.512000000
O     1.264000000    -2.824000000     2.420000000
H     0.633000000    -3.206000000     1.810000000
H     0.734000000    -2.283000000     3.006000000
O    -2.354000000     2.515000000     0.492000000
H    -2.023000000     3.385000000     0.268000000
H    -2.866000000     2.250000000    -0.273000000
O    -2.051000000     3.494000000     5.447000000
H    -1.767000000     3.077000000     4.633000000
H    -2.182000000     4.412000000     5.213000000
O     0.598000000     0.333000000    -8.937000000
H     0.548000000    -0.585000000    -8.671000000
H     0.652000000     0.819000000    -8.114000000
O    -3.477000000     0.041000000     6.773000000
H    -3.579000000     0.541000000     5.962000000
H    -2.847000000     0.545000000     7.287000000
O     3.455000000     5.498000000    -3.012000000
H     2.847000000     6.195000000    -2.768000000
H     3.456000000     4.906000000    -2.260000000
O    -3.164000000     4.892000000    -4.765000000
H    -3.741000000     5.238000000    -4.085000000
H    -2.973000000     3.997000000    -4.485000000
O     5.139000000    -1.970000000     0.578000000
H     4.479000000    -1.811000000    -0.096000000
H     5.596000000    -1.134000000     0.667000000
O     4.914000000     2.514000000    -2.306000000
H     5.821000000     2.715000000    -2.537000000
H     4.768000000     2.977000000    -1.481000000
O     1.739000000    -1.408000000    -3.436000000
H     1.712000000    -1.203000000    -2.502000000
H     1.465000000    -0.598000000    -3.867000000
O    -4.681000000     0.208000000     1.550000000
H    -3.833000000     0.245000000     1.108000000
H    -5.322000000     0.290000000     0.845000000
O     4.158000000     0.427000000     4.623000000
H     4.040000000    -0.499000000     4.411000000
H     5.069000000     0.611000000     4.393000000
