158
-3051.64186
C     0.970000000     0.740000000    -0.793000000
H     1.778000000     1.306000000    -1.250000000
C     0.999000000     0.610000000     0.585000000
H     1.733000000     1.134000000     1.192000000
C    -0.021000000    -0.070000000     1.196000000
H    -0.010000000    -0.070000000     2.285000000
C    -1.020000000    -0.733000000     0.443000000
H    -1.813000000    -1.309000000     0.914000000
C    -0.984000000    -0.639000000    -0.903000000
H    -1.694000000    -1.243000000    -1.463000000
C    -0.014000000     0.135000000    -1.548000000
C     0.018000000     0.236000000    -3.005000000
O    -0.803000000    -0.401000000    -3.662000000
O     0.915000000     0.860000000    -3.587000000
O    -3.582000000    -4.289000000     3.659000000
H    -3.700000000    -3.752000000     4.443000000
H    -3.601000000    -3.663000000     2.935000000
O     1.997000000    -0.730000000    -5.589000000
H     1.930000000    -0.237000000    -6.406000000
H     1.406000000    -0.278000000    -4.987000000
O     1.448000000     3.092000000    -4.668000000
H     1.251000000     2.255000000    -4.248000000
H     1.412000000     3.731000000    -3.956000000
O     3.860000000     0.142000000    -3.034000000
H     3.005000000     0.467000000    -3.315000000
H     4.305000000    -0.096000000    -3.848000000
O     4.169000000     3.130000000    -5.387000000
H     3.542000000     3.056000000    -4.667000000
H     3.950000000     3.959000000    -5.811000000
O     2.273000000    -2.311000000     3.096000000
H     3.115000000    -2.377000000     3.547000000
H     2.383000000    -2.840000000     2.305000000
O     4.667000000     0.975000000    -0.537000000
H     4.452000000     1.908000000    -0.526000000
H     4.253000000     0.643000000    -1.333000000
O    -2.275000000    -5.381000000    -3.922000000
H    -1.877000000    -4.522000000    -4.064000000
H    -2.229000000    -5.811000000    -4.775000000
O    -2.484000000    -3.073000000    -7.293000000
H    -1.775000000    -3.169000000    -6.657000000
H    -2.050000000    -2.781000000    -8.094000000
O     0.407000000    -3.417000000    -7.057000000
H     0.834000000    -4.270000000    -7.137000000
H    -0.013000000    -3.440000000    -6.197000000
O    -1.497000000     2.722000000    -0.184000000
H    -1.698000000     3.111000000    -1.035000000
H    -0.735000000     2.166000000    -0.349000000
O     3.025000000     0.159000000     6.045000000
H     2.887000000     0.916000000     6.614000000
H     3.963000000    -0.020000000     6.106000000
O     3.970000000     3.620000000    -0.292000000
H     3.129000000     4.075000000    -0.296000000
H     4.539000000     4.162000000    -0.838000000
O    -0.884000000     0.046000000     4.901000000
H    -1.707000000     0.013000000     4.413000000
H    -0.596000000    -0.865000000     4.946000000
O     2.787000000     4.116000000     3.053000000
H     1.945000000     4.412000000     2.707000000
H     3.157000000     3.575000000     2.355000000
O    -1.297000000     4.856000000    -5.076000000
H    -1.052000000     4.189000000    -5.718000000
H    -2.195000000     5.093000000    -5.308000000
O    -4.425000000    -1.811000000     1.695000000
H    -5.276000000    -2.092000000     2.030000000
H    -4.399000000    -2.145000000     0.798000000
O    -2.884000000     4.672000000     0.905000000
H    -2.328000000     4.016000000     0.485000000
H    -2.603000000     4.675000000     1.820000000
O    -4.711000000     1.850000000    -1.869000000
H    -4.492000000     1.659000000    -0.957000000
H    -4.023000000     1.418000000    -2.375000000
O    -2.052000000    -6.651000000    -1.411000000
H    -1.814000000    -5.856000000    -1.888000000
H    -2.001000000    -6.402000000    -0.489000000
O     1.559000000     2.098000000    -7.222000000
H     0.631000000     1.894000000    -7.339000000
H     1.643000000     2.305000000    -6.291000000
O     0.732000000    -3.507000000    -2.351000000
H     1.515000000    -3.184000000    -2.798000000
H     1.004000000    -3.613000000    -1.439000000
O    -5.118000000     2.535000000     2.738000000
H    -4.369000000     2.281000000     2.199000000
H    -5.288000000     1.770000000     3.288000000
O     5.182000000     2.970000000     2.111000000
H     4.759000000     3.050000000     1.256000000
H     4.874000000     2.130000000     2.453000000
O    -1.452000000     2.441000000     3.691000000
H    -1.153000000     1.756000000     4.290000000
H    -1.783000000     3.133000000     4.265000000
O     1.687000000    -2.301000000     6.693000000
H     2.037000000    -1.523000000     6.259000000
H     0.991000000    -2.607000000     6.112000000
O     1.774000000     5.062000000     0.170000000
H     1.027000000     4.940000000     0.756000000
H     2.046000000     5.969000000     0.313000000
O     0.095000000     4.298000000     2.499000000
H    -0.389000000     3.476000000     2.575000000
H    -0.541000000     4.974000000     2.734000000
O     1.584000000    -2.994000000     0.212000000
H     2.366000000    -2.453000000     0.098000000
H     0.866000000    -2.365000000     0.283000000
O    -2.341000000     2.394000000    -7.437000000
H    -1.792000000     2.499000000    -8.215000000
H    -1.965000000     1.642000000    -6.979000000
O    -4.251000000    -1.658000000    -1.435000000
H    -4.342000000    -2.566000000    -1.725000000
H    -4.849000000    -1.166000000    -1.998000000
O     3.926000000    -1.517000000     0.286000000
H     4.588000000    -1.757000000    -0.362000000
H     3.910000000    -0.560000000     0.268000000
O    -3.704000000    -0.171000000     3.728000000
H    -3.741000000    -0.772000000     2.984000000
H    -4.307000000    -0.546000000     4.370000000
O    -0.124000000    -2.663000000     4.572000000
H    -0.351000000    -3.577000000     4.400000000
H     0.689000000    -2.523000000     4.086000000
O     3.384000000    -2.648000000    -2.931000000
H     4.108000000    -3.039000000    -2.441000000
H     3.472000000    -1.707000000    -2.777000000
O    -3.533000000     1.346000000     0.937000000
H    -2.633000000     1.671000000     0.916000000
H    -3.447000000     0.397000000     0.846000000
O    -0.556000000     2.298000000     7.642000000
H    -0.014000000     2.040000000     6.896000000
H    -1.272000000     1.663000000     7.649000000
O    -0.863000000    -3.242000000    -4.262000000
H    -0.210000000    -3.429000000    -3.589000000
H    -1.114000000    -2.331000000    -4.105000000
O    -4.327000000    -4.399000000    -2.265000000
H    -3.634000000    -4.957000000    -2.618000000
H    -4.948000000    -4.303000000    -2.987000000
O    -1.517000000     0.267000000    -6.172000000
H    -1.955000000    -0.536000000    -6.453000000
H    -1.250000000     0.092000000    -5.270000000
O    -4.264000000    -1.247000000    -5.393000000
H    -4.420000000    -1.945000000    -6.029000000
H    -5.139000000    -0.993000000    -5.097000000
O     1.471000000     4.905000000    -2.773000000
H     1.561000000     4.959000000    -1.822000000
H     1.600000000     5.804000000    -3.077000000
O    -3.094000000     0.737000000    -3.655000000
H    -2.310000000     0.207000000    -3.514000000
H    -3.528000000     0.329000000    -4.404000000
O     1.285000000     3.321000000     5.350000000
H     0.384000000     3.628000000     5.450000000
H     1.505000000     3.517000000     4.440000000
O     4.859000000    -0.514000000    -5.636000000
H     5.442000000    -1.012000000    -6.210000000
H     4.075000000    -1.057000000    -5.562000000
O     4.087000000     0.817000000     3.296000000
H     3.401000000     0.890000000     3.959000000
H     4.443000000    -0.063000000     3.415000000
O    -1.975000000     3.357000000    -2.651000000
H    -1.705000000     3.898000000    -3.393000000
H    -2.129000000     2.492000000    -3.030000000
O     4.653000000    -2.826000000     3.918000000
H     5.464000000    -2.623000000     4.385000000
H     4.915000000    -3.453000000     3.244000000
