158
-3056.48382
C     0.669000000     0.807000000    -1.095000000
H     1.170000000     1.450000000    -1.814000000
C     1.031000000     0.903000000     0.231000000
H     1.879000000     1.514000000     0.533000000
C     0.297000000     0.182000000     1.128000000
H     0.555000000     0.226000000     2.189000000
C    -0.847000000    -0.580000000     0.797000000
H    -1.456000000    -1.087000000     1.541000000
C    -1.105000000    -0.797000000    -0.568000000
H    -1.892000000    -1.492000000    -0.847000000
C    -0.353000000    -0.075000000    -1.516000000
C    -0.746000000    -0.259000000    -2.952000000
O    -1.667000000    -0.932000000    -3.337000000
O     0.063000000     0.201000000    -3.735000000
O     6.033000000    -0.832000000     1.302000000
H     5.533000000    -0.120000000     1.701000000
H     5.757000000    -1.615000000     1.778000000
O    -3.193000000    -2.488000000     5.112000000
H    -2.958000000    -2.697000000     6.017000000
H    -2.704000000    -1.689000000     4.917000000
O    -0.350000000    -2.585000000    -5.135000000
H    -1.155000000    -3.061000000    -5.337000000
H    -0.630000000    -1.873000000    -4.560000000
O     2.541000000     0.584000000     7.860000000
H     2.022000000     0.967000000     7.153000000
H     2.053000000     0.793000000     8.656000000
O     2.758000000     1.728000000    -4.414000000
H     1.958000000     1.213000000    -4.307000000
H     2.680000000     2.429000000    -3.768000000
O     2.497000000    -1.109000000    -3.565000000
H     1.826000000    -0.474000000    -3.817000000
H     3.182000000    -1.008000000    -4.226000000
O    -4.245000000    -1.288000000    -2.605000000
H    -3.340000000    -1.205000000    -2.906000000
H    -4.700000000    -1.717000000    -3.329000000
O     1.890000000    -2.255000000     4.180000000
H     1.300000000    -2.877000000     4.605000000
H     2.579000000    -2.100000000     4.825000000
O     3.843000000    -1.342000000    -1.269000000
H     3.258000000    -1.260000000    -2.022000000
H     3.255000000    -1.404000000    -0.516000000
O    -4.079000000    -5.267000000    -3.445000000
H    -3.395000000    -4.684000000    -3.114000000
H    -3.627000000    -6.093000000    -3.618000000
O    -2.989000000    -3.177000000    -5.956000000
H    -3.134000000    -4.091000000    -6.201000000
H    -2.790000000    -2.736000000    -6.782000000
O    -1.426000000    -5.748000000    -4.613000000
H    -0.514000000    -5.905000000    -4.859000000
H    -1.403000000    -4.927000000    -4.121000000
O    -1.770000000     2.501000000     1.012000000
H    -1.413000000     3.224000000     0.495000000
H    -1.298000000     1.729000000     0.703000000
O     2.242000000    -3.201000000    -5.911000000
H     2.823000000    -2.450000000    -5.794000000
H     1.412000000    -2.926000000    -5.520000000
O     2.060000000     3.741000000     4.770000000
H     2.118000000     2.793000000     4.646000000
H     1.856000000     3.849000000     5.699000000
O     4.088000000     2.415000000    -1.146000000
H     4.261000000     3.060000000    -0.461000000
H     3.423000000     2.826000000    -1.699000000
O    -0.664000000    -0.714000000     7.801000000
H    -0.231000000    -0.383000000     7.014000000
H    -0.957000000     0.071000000     8.262000000
O    -0.913000000     5.828000000    -3.900000000
H    -0.064000000     6.254000000    -3.783000000
H    -0.764000000     4.920000000    -3.638000000
O     3.104000000     0.788000000     3.797000000
H     3.480000000     1.280000000     3.067000000
H     3.857000000     0.544000000     4.335000000
O     3.999000000    -3.807000000     1.506000000
H     3.591000000    -2.959000000     1.680000000
H     4.720000000    -3.608000000     0.908000000
O    -0.362000000     2.799000000    -4.021000000
H    -0.240000000     1.857000000    -3.899000000
H    -0.112000000     2.957000000    -4.931000000
O     1.015000000    -1.050000000    -7.825000000
H     0.383000000    -0.865000000    -7.130000000
H     1.243000000    -1.971000000    -7.702000000
O    -5.410000000    -2.437000000     1.812000000
H    -5.190000000    -2.512000000     0.884000000
H    -5.615000000    -3.332000000     2.083000000
O    -0.180000000    -4.199000000    -0.800000000
H     0.674000000    -4.229000000    -1.231000000
H    -0.011000000    -3.769000000     0.038000000
O     4.899000000     1.531000000     1.581000000
H     5.096000000     2.460000000     1.459000000
H     4.459000000     1.272000000     0.771000000
O    -2.228000000     0.015000000     4.432000000
H    -2.715000000     0.406000000     5.157000000
H    -2.735000000     0.242000000     3.653000000
O     2.770000000     4.854000000    -0.027000000
H     2.175000000     4.498000000     0.634000000
H     2.986000000     5.730000000     0.291000000
O     1.550000000     5.176000000     2.319000000
H     0.594000000     5.213000000     2.346000000
H     1.809000000     4.998000000     3.224000000
O     1.196000000    -3.620000000     1.625000000
H     1.181000000    -2.852000000     2.196000000
H     2.119000000    -3.870000000     1.585000000
O    -0.460000000     3.147000000    -7.033000000
H    -0.394000000     3.551000000    -7.897000000
H    -0.813000000     2.273000000    -7.203000000
O    -4.507000000     0.181000000    -0.492000000
H    -5.456000000     0.290000000    -0.437000000
H    -4.378000000    -0.436000000    -1.212000000
O     3.106000000    -1.309000000     1.831000000
H     3.063000000    -0.353000000     1.856000000
H     2.686000000    -1.589000000     2.645000000
O    -0.961000000    -4.603000000     3.225000000
H    -1.107000000    -3.974000000     3.931000000
H    -0.268000000    -4.211000000     2.694000000
O     1.769000000    -4.207000000    -3.033000000
H     1.620000000    -4.582000000    -3.901000000
H     2.136000000    -3.340000000    -3.207000000
O    -3.586000000     0.950000000     1.912000000
H    -2.952000000     1.545000000     1.512000000
H    -4.055000000     0.567000000     1.171000000
O     5.062000000     4.333000000     1.331000000
H     4.317000000     4.732000000     0.883000000
H     5.157000000     4.839000000     2.138000000
O    -1.906000000    -3.624000000    -2.919000000
H    -1.230000000    -3.693000000    -2.244000000
H    -1.882000000    -2.706000000    -3.189000000
O    -4.430000000    -3.338000000    -0.539000000
H    -3.565000000    -3.017000000    -0.286000000
H    -4.705000000    -2.755000000    -1.246000000
O    -0.830000000     0.180000000    -6.388000000
H    -1.776000000     0.263000000    -6.270000000
H    -0.490000000     0.045000000    -5.504000000
O    -4.059000000     0.097000000    -6.793000000
H    -4.705000000     0.739000000    -7.089000000
H    -4.581000000    -0.657000000    -6.518000000
O     1.999000000     3.707000000    -2.638000000
H     1.817000000     4.175000000    -1.823000000
H     1.163000000     3.703000000    -3.104000000
O    -3.404000000     1.091000000    -4.398000000
H    -2.871000000     0.308000000    -4.258000000
H    -3.848000000     0.932000000    -5.231000000
O     0.770000000     0.881000000     5.350000000
H    -0.068000000     0.699000000     4.924000000
H     1.428000000     0.586000000     4.720000000
O     6.374000000     1.052000000    -1.233000000
H     6.144000000     0.236000000    -0.787000000
H     5.533000000     1.435000000    -1.480000000
O     0.114000000    -3.321000000     5.667000000
H    -0.502000000    -3.144000000     6.378000000
H     0.493000000    -4.173000000     5.886000000
O     5.220000000     0.726000000     5.475000000
H     5.535000000     0.961000000     6.348000000
H     5.875000000     0.113000000     5.141000000
O    -0.792000000     4.064000000    -1.216000000
H    -1.327000000     4.827000000    -0.996000000
H    -1.320000000     3.574000000    -1.845000000
O    -4.169000000     2.220000000    -2.227000000
H    -4.243000000     1.467000000    -1.640000000
H    -3.850000000     1.851000000    -3.050000000
