158
-3044.93897
C     1.247000000     0.173000000    -0.697000000
H     2.263000000     0.174000000    -1.083000000
C     0.936000000     0.731000000     0.558000000
H     1.603000000     1.326000000     1.176000000
C    -0.279000000     0.449000000     1.075000000
H    -0.475000000     0.675000000     2.126000000
C    -1.212000000    -0.242000000     0.351000000
H    -2.191000000    -0.444000000     0.778000000
C    -0.974000000    -0.666000000    -0.961000000
H    -1.771000000    -1.119000000    -1.545000000
C     0.322000000    -0.510000000    -1.465000000
C     0.792000000    -1.117000000    -2.788000000
O     0.201000000    -2.109000000    -3.136000000
O     1.728000000    -0.608000000    -3.459000000
O     2.372000000    -6.602000000    -1.427000000
H     2.057000000    -5.743000000    -1.706000000
H     2.505000000    -7.085000000    -2.243000000
O    -4.842000000     1.007000000    -4.520000000
H    -5.080000000     0.623000000    -5.363000000
H    -3.926000000     0.759000000    -4.393000000
O     0.862000000     3.058000000    -2.847000000
H     0.757000000     3.366000000    -3.747000000
H     1.554000000     2.398000000    -2.900000000
O     0.648000000     1.314000000    -5.295000000
H     1.423000000     1.844000000    -5.482000000
H     0.882000000     0.814000000    -4.513000000
O    -0.629000000     0.451000000     6.538000000
H    -0.676000000     1.026000000     5.774000000
H    -0.715000000    -0.432000000     6.178000000
O     6.830000000     0.304000000    -2.576000000
H     7.378000000     1.054000000    -2.347000000
H     6.247000000     0.195000000    -1.824000000
O     5.600000000    -2.515000000    -5.973000000
H     6.385000000    -1.969000000    -5.929000000
H     4.972000000    -1.993000000    -6.472000000
O     1.914000000    -2.483000000    -5.528000000
H     1.814000000    -1.796000000    -4.870000000
H     2.594000000    -2.155000000    -6.117000000
O     3.886000000    -4.877000000    -4.282000000
H     4.272000000    -4.202000000    -4.839000000
H     4.302000000    -5.690000000    -4.568000000
O     1.788000000     4.591000000     1.835000000
H     1.355000000     4.315000000     2.644000000
H     2.352000000     3.854000000     1.602000000
O    -2.989000000     2.558000000     1.861000000
H    -3.913000000     2.809000000     1.866000000
H    -2.663000000     2.860000000     1.013000000
O     3.264000000     1.527000000    -3.472000000
H     3.239000000     0.584000000    -3.306000000
H     3.895000000     1.628000000    -4.184000000
O    -4.069000000     0.661000000     6.176000000
H    -3.731000000     0.347000000     7.014000000
H    -3.311000000     1.053000000     5.743000000
O    -2.894000000     3.464000000     6.330000000
H    -2.459000000     3.429000000     7.182000000
H    -3.474000000     4.224000000     6.388000000
O     2.826000000    -1.900000000     5.883000000
H     2.849000000    -2.419000000     5.079000000
H     2.661000000    -1.006000000     5.586000000
O     2.063000000     0.764000000     6.194000000
H     1.192000000     0.597000000     6.555000000
H     2.554000000     1.148000000     6.921000000
O    -1.080000000    -4.135000000    -0.296000000
H    -1.426000000    -3.500000000    -0.923000000
H    -0.189000000    -3.834000000    -0.117000000
O    -2.000000000    -0.045000000    -4.557000000
H    -1.494000000     0.761000000    -4.455000000
H    -1.425000000    -0.627000000    -5.054000000
O    -0.992000000     3.004000000    -0.644000000
H    -0.646000000     2.251000000    -0.164000000
H    -0.448000000     3.056000000    -1.430000000
O    -4.363000000    -1.551000000    -1.632000000
H    -4.024000000    -0.676000000    -1.440000000
H    -4.014000000    -1.758000000    -2.499000000
O     4.993000000     1.500000000    -5.620000000
H     5.760000000     0.966000000    -5.828000000
H     4.389000000     1.345000000    -6.346000000
O     1.525000000    -3.166000000     0.645000000
H     2.329000000    -3.608000000     0.921000000
H     1.613000000    -2.276000000     0.985000000
O    -0.166000000     1.486000000    -7.922000000
H    -0.130000000     1.493000000    -6.965000000
H    -0.326000000     2.398000000    -8.163000000
O     0.996000000     3.552000000     4.220000000
H     1.397000000     3.422000000     5.080000000
H     0.297000000     2.900000000     4.180000000
O     0.166000000    -2.070000000     6.283000000
H     1.117000000    -1.975000000     6.326000000
H     0.029000000    -2.928000000     5.881000000
O    -0.251000000    -6.446000000    -3.498000000
H     0.299000000    -5.667000000    -3.411000000
H    -0.406000000    -6.732000000    -2.598000000
O     5.118000000     0.166000000     2.716000000
H     5.652000000    -0.350000000     3.320000000
H     4.216000000    -0.011000000     2.983000000
O    -1.931000000    -1.558000000     4.214000000
H    -2.693000000    -1.165000000     3.790000000
H    -2.246000000    -2.403000000     4.536000000
O     3.841000000     2.761000000     1.404000000
H     4.428000000     2.029000000     1.590000000
H     3.785000000     2.787000000     0.449000000
O     4.469000000     2.745000000    -1.173000000
H     5.204000000     3.146000000    -1.637000000
H     4.135000000     2.085000000    -1.781000000
O    -2.474000000    -4.668000000     2.104000000
H    -2.033000000    -4.139000000     2.769000000
H    -1.941000000    -4.557000000     1.317000000
O     3.359000000    -1.600000000    -7.532000000
H     2.797000000    -0.967000000    -7.980000000
H     3.659000000    -2.187000000    -8.226000000
O     2.579000000    -0.006000000     3.415000000
H     1.926000000    -0.705000000     3.375000000
H     2.196000000     0.645000000     4.004000000
O    -4.334000000    -1.996000000     2.763000000
H    -4.122000000    -2.883000000     3.054000000
H    -4.639000000    -2.106000000     1.863000000
O     0.592000000    -1.979000000     3.346000000
H    -0.214000000    -1.658000000     3.751000000
H     0.357000000    -2.837000000     2.992000000
O     1.159000000    -6.495000000    -5.739000000
H     0.706000000    -6.648000000    -4.910000000
H     1.296000000    -5.548000000    -5.766000000
O     3.529000000    -2.998000000    -1.563000000
H     3.010000000    -3.601000000    -2.095000000
H     2.929000000    -2.280000000    -1.361000000
O    -5.922000000    -3.395000000    -0.470000000
H    -5.265000000    -2.938000000    -0.995000000
H    -5.420000000    -4.022000000     0.050000000
O    -3.010000000    -4.484000000    -5.893000000
H    -2.975000000    -5.426000000    -5.727000000
H    -3.055000000    -4.089000000    -5.022000000
O    -6.660000000     0.506000000    -2.426000000
H    -6.266000000     0.136000000    -3.216000000
H    -5.915000000     0.732000000    -1.869000000
O    -0.439000000    -3.384000000    -6.353000000
H    -1.068000000    -3.502000000    -5.641000000
H     0.386000000    -3.178000000    -5.912000000
O    -1.685000000     2.226000000     4.545000000
H    -2.168000000     2.969000000     4.910000000
H    -2.092000000     2.072000000     3.692000000
O    -0.846000000     5.612000000     0.918000000
H     0.003000000     5.513000000     1.350000000
H    -1.040000000     4.742000000     0.571000000
O     5.846000000    -0.656000000     0.080000000
H     5.335000000    -1.345000000    -0.344000000
H     5.477000000    -0.592000000     0.961000000
O     4.827000000     2.399000000     4.773000000
H     4.064000000     2.843000000     5.143000000
H     4.574000000     2.198000000     3.872000000
O    -2.260000000    -2.671000000    -3.858000000
H    -1.438000000    -2.964000000    -3.466000000
H    -2.175000000    -1.719000000    -3.910000000
O    -3.888000000     1.250000000    -1.241000000
H    -4.364000000     1.961000000    -0.813000000
H    -2.967000000     1.505000000    -1.177000000
O     1.501000000    -4.578000000    -3.093000000
H     2.176000000    -4.377000000    -3.742000000
H     1.083000000    -3.736000000    -2.914000000
