158
-3054.10856
C     1.037000000     0.523000000    -0.883000000
H     1.818000000     1.001000000    -1.469000000
C     0.917000000     0.812000000     0.440000000
H     1.635000000     1.475000000     0.915000000
C    -0.154000000     0.254000000     1.222000000
H    -0.311000000     0.420000000     2.292000000
C    -1.018000000    -0.661000000     0.594000000
H    -1.774000000    -1.170000000     1.186000000
C    -0.952000000    -0.833000000    -0.823000000
H    -1.631000000    -1.548000000    -1.282000000
C     0.163000000    -0.342000000    -1.548000000
C     0.337000000    -0.585000000    -3.048000000
O    -0.364000000    -1.380000000    -3.643000000
O     1.154000000     0.048000000    -3.694000000
O    -0.622000000     2.442000000    -4.163000000
H     0.157000000     2.885000000    -3.826000000
H    -0.285000000     1.648000000    -4.579000000
O    -2.862000000     0.488000000    -6.154000000
H    -2.848000000     1.444000000    -6.212000000
H    -1.945000000     0.229000000    -6.238000000
O    -2.996000000    -0.713000000     5.413000000
H    -3.179000000    -1.403000000     4.776000000
H    -2.211000000    -1.013000000     5.872000000
O     6.281000000    -0.568000000    -3.874000000
H     6.967000000    -0.195000000    -3.319000000
H     5.466000000    -0.365000000    -3.415000000
O    -0.390000000    -0.392000000    -6.094000000
H    -0.319000000    -0.916000000    -5.296000000
H     0.514000000    -0.276000000    -6.386000000
O     0.905000000    -3.480000000    -6.867000000
H     1.692000000    -3.166000000    -7.311000000
H     0.575000000    -4.179000000    -7.431000000
O     2.991000000     4.676000000    -0.635000000
H     3.864000000     5.068000000    -0.610000000
H     2.941000000     4.151000000     0.163000000
O    -4.137000000     1.630000000     1.889000000
H    -4.758000000     0.902000000     1.930000000
H    -4.205000000     1.952000000     0.990000000
O     3.171000000     1.580000000    -3.530000000
H     2.318000000     1.170000000    -3.677000000
H     3.272000000     2.190000000    -4.261000000
O    -3.454000000     1.874000000     5.512000000
H    -3.217000000     0.957000000     5.377000000
H    -3.203000000     2.057000000     6.417000000
O     0.604000000    -4.179000000     3.091000000
H     0.815000000    -4.758000000     2.358000000
H     0.958000000    -3.328000000     2.834000000
O     0.896000000     2.262000000     4.110000000
H     0.026000000     2.432000000     3.750000000
H     0.903000000     2.722000000     4.949000000
O    -0.255000000    -4.141000000    -0.154000000
H    -0.470000000    -4.134000000    -1.087000000
H     0.701000000    -4.112000000    -0.129000000
O     2.824000000     0.604000000     6.506000000
H     2.213000000     0.341000000     7.195000000
H     2.339000000     1.245000000     5.987000000
O    -1.481000000     2.672000000    -1.408000000
H    -1.190000000     2.018000000    -0.772000000
H    -1.443000000     2.220000000    -2.250000000
O    -4.744000000    -0.173000000    -1.889000000
H    -4.192000000     0.528000000    -1.543000000
H    -4.149000000    -0.710000000    -2.412000000
O     2.624000000     2.944000000    -5.811000000
H     3.364000000     3.030000000    -6.411000000
H     2.005000000     3.617000000    -6.095000000
O     2.906000000    -2.684000000    -0.827000000
H     2.914000000    -3.591000000    -0.522000000
H     2.255000000    -2.673000000    -1.529000000
O    -0.156000000     1.192000000    -8.582000000
H    -0.838000000     1.601000000    -8.050000000
H     0.426000000     0.775000000    -7.946000000
O     2.489000000     3.448000000     1.972000000
H     1.973000000     2.739000000     2.356000000
H     2.539000000     4.110000000     2.662000000
O    -1.068000000    -2.413000000     6.443000000
H    -1.130000000    -3.197000000     5.897000000
H    -0.139000000    -2.184000000     6.429000000
O    -1.241000000    -4.637000000     4.992000000
H    -0.534000000    -4.639000000     4.346000000
H    -1.205000000    -5.507000000     5.389000000
O     5.324000000    -1.452000000     1.933000000
H     5.575000000    -1.299000000     2.844000000
H     5.167000000    -0.577000000     1.578000000
O    -4.726000000    -2.734000000     4.002000000
H    -5.443000000    -2.103000000     3.947000000
H    -4.692000000    -2.978000000     4.927000000
O     1.021000000     3.558000000     6.324000000
H     1.719000000     4.211000000     6.374000000
H     0.647000000     3.539000000     7.205000000
O     4.417000000     0.831000000     0.702000000
H     4.280000000     0.358000000    -0.119000000
H     3.796000000     0.435000000     1.313000000
O     5.574000000     2.532000000    -2.343000000
H     6.081000000     1.823000000    -1.948000000
H     4.761000000     2.115000000    -2.630000000
O    -2.438000000    -4.325000000     1.224000000
H    -2.166000000    -4.467000000     2.130000000
H    -1.624000000    -4.145000000     0.754000000
O    -0.920000000     5.120000000     4.739000000
H    -0.545000000     4.501000000     5.364000000
H    -1.413000000     4.574000000     4.127000000
O     2.190000000    -0.148000000    -6.896000000
H     2.837000000    -0.356000000    -7.571000000
H     2.709000000     0.008000000    -6.107000000
O     1.763000000    -3.770000000     5.754000000
H     2.637000000    -3.382000000     5.790000000
H     1.570000000    -3.839000000     4.819000000
O     2.526000000     0.029000000     3.424000000
H     2.192000000    -0.826000000     3.154000000
H     1.743000000     0.569000000     3.528000000
O    -5.483000000    -2.027000000     1.328000000
H    -4.871000000    -2.536000000     1.860000000
H    -5.021000000    -1.886000000     0.502000000
O    -4.195000000    -3.583000000    -0.668000000
H    -4.768000000    -4.193000000    -0.204000000
H    -3.340000000    -3.694000000    -0.252000000
O     2.268000000    -2.338000000     2.043000000
H     2.242000000    -2.332000000     1.086000000
H     3.187000000    -2.498000000     2.257000000
O     3.116000000    -1.496000000    -4.630000000
H     2.802000000    -2.028000000    -5.362000000
H     2.352000000    -0.985000000    -4.360000000
O    -6.205000000    -3.253000000    -2.482000000
H    -5.893000000    -2.811000000    -3.272000000
H    -5.470000000    -3.201000000    -1.872000000
O     1.497000000     4.264000000    -2.865000000
H     1.608000000     5.215000000    -2.871000000
H     2.022000000     3.966000000    -2.122000000
O    -5.248000000    -2.167000000    -4.847000000
H    -5.785000000    -1.703000000    -5.489000000
H    -4.370000000    -1.805000000    -4.962000000
O    -2.177000000    -1.575000000    -8.312000000
H    -1.684000000    -2.190000000    -8.855000000
H    -1.522000000    -1.195000000    -7.726000000
O    -1.399000000    -3.502000000    -5.515000000
H    -1.477000000    -2.814000000    -4.854000000
H    -0.537000000    -3.362000000    -5.906000000
O    -1.813000000     2.582000000     3.473000000
H    -2.224000000     2.321000000     4.297000000
H    -2.414000000     2.270000000     2.796000000
O     0.156000000     4.548000000     0.305000000
H     1.089000000     4.331000000     0.296000000
H    -0.200000000     4.101000000    -0.463000000
O     4.268000000    -0.190000000    -1.870000000
H     3.819000000    -0.965000000    -1.532000000
H     3.584000000     0.308000000    -2.317000000
O     4.594000000     1.940000000     3.447000000
H     3.982000000     1.229000000     3.637000000
H     4.050000000     2.629000000     3.065000000
O    -2.955000000    -0.830000000    -3.887000000
H    -2.028000000    -0.981000000    -3.705000000
H    -2.959000000    -0.289000000    -4.676000000
O    -4.095000000     2.440000000    -0.651000000
H    -4.604000000     3.047000000    -1.189000000
H    -3.207000000     2.797000000    -0.661000000
O     0.925000000    -3.833000000    -2.734000000
H     1.465000000    -4.321000000    -3.355000000
H     0.502000000    -3.157000000    -3.263000000
