158
-3047.86948
C     0.282000000     1.124000000    -1.001000000
H     0.529000000     1.945000000    -1.669000000
C     0.216000000     1.274000000     0.368000000
H     0.382000000     2.223000000     0.873000000
C     0.020000000     0.147000000     1.188000000
H     0.015000000     0.274000000     2.277000000
C    -0.337000000    -1.079000000     0.673000000
H    -0.584000000    -1.907000000     1.332000000
C    -0.274000000    -1.168000000    -0.760000000
H    -0.497000000    -2.164000000    -1.135000000
C     0.034000000    -0.106000000    -1.564000000
C     0.129000000    -0.318000000    -3.054000000
O     0.069000000    -1.454000000    -3.379000000
O     0.073000000     0.598000000    -3.805000000
O    -2.670000000    -3.661000000    -1.102000000
H    -2.026000000    -3.822000000    -1.791000000
H    -2.962000000    -2.762000000    -1.252000000
O    -0.395000000     3.097000000    -4.154000000
H     0.491000000     3.360000000    -3.904000000
H    -0.438000000     2.165000000    -3.940000000
O    -1.593000000     0.003000000     6.149000000
H    -1.994000000     0.414000000     5.383000000
H    -2.279000000     0.018000000     6.816000000
O     3.988000000     2.677000000     1.379000000
H     4.007000000     3.420000000     1.982000000
H     4.412000000     1.967000000     1.860000000
O    -4.138000000    -1.787000000     6.649000000
H    -4.893000000    -1.211000000     6.770000000
H    -3.833000000    -1.599000000     5.761000000
O    -0.946000000    -0.228000000    -6.126000000
H    -0.680000000     0.141000000    -5.284000000
H    -0.224000000    -0.806000000    -6.373000000
O     3.574000000    -4.639000000     4.174000000
H     3.585000000    -5.554000000     3.891000000
H     2.862000000    -4.242000000     3.672000000
O    -0.034000000    -6.120000000     3.409000000
H    -0.553000000    -5.732000000     2.704000000
H     0.289000000    -6.943000000     3.042000000
O     1.749000000    -5.415000000    -2.608000000
H     2.003000000    -4.771000000    -3.269000000
H     1.897000000    -4.972000000    -1.773000000
O     3.620000000     3.154000000    -1.262000000
H     3.498000000     3.217000000    -0.315000000
H     4.111000000     2.342000000    -1.387000000
O    -4.445000000     1.076000000     3.990000000
H    -4.387000000     0.120000000     4.002000000
H    -5.306000000     1.268000000     4.359000000
O     2.267000000     0.362000000    -5.161000000
H     1.550000000     0.519000000    -4.547000000
H     1.969000000    -0.375000000    -5.694000000
O    -3.545000000    -1.401000000     3.851000000
H    -3.595000000    -1.397000000     2.895000000
H    -2.787000000    -1.950000000     4.049000000
O     2.624000000    -1.238000000     3.384000000
H     2.979000000    -1.348000000     4.266000000
H     2.034000000    -1.982000000     3.268000000
O    -3.789000000     0.561000000    -7.812000000
H    -3.147000000     0.477000000    -8.517000000
H    -3.267000000     0.771000000    -7.037000000
O     1.044000000     4.645000000     1.877000000
H     0.193000000     4.990000000     1.609000000
H     1.634000000     5.397000000     1.827000000
O     1.367000000    -3.756000000     2.869000000
H     0.918000000    -4.073000000     2.086000000
H     0.758000000    -3.938000000     3.585000000
O     0.968000000     0.665000000     5.966000000
H     0.048000000     0.405000000     6.021000000
H     0.948000000     1.536000000     5.570000000
O    -1.266000000     4.106000000     5.496000000
H    -1.230000000     3.930000000     4.555000000
H    -2.141000000     3.822000000     5.760000000
O    -2.502000000     2.208000000    -0.285000000
H    -3.320000000     1.848000000    -0.627000000
H    -1.858000000     1.514000000    -0.426000000
O     4.684000000    -0.863000000    -4.673000000
H     3.920000000    -0.358000000    -4.952000000
H     4.497000000    -1.096000000    -3.764000000
O     4.085000000     2.392000000    -5.902000000
H     3.476000000     1.949000000    -5.311000000
H     3.576000000     2.546000000    -6.698000000
O    -0.977000000     2.350000000    -7.039000000
H    -1.150000000     1.430000000    -6.840000000
H    -0.447000000     2.659000000    -6.304000000
O     3.360000000    -0.685000000     0.434000000
H     3.369000000    -0.845000000     1.378000000
H     2.508000000    -0.283000000     0.267000000
O     4.461000000     4.349000000     3.735000000
H     5.298000000     4.426000000     4.194000000
H     3.808000000     4.307000000     4.434000000
O     4.388000000    -1.353000000    -2.009000000
H     4.848000000    -0.522000000    -2.122000000
H     3.983000000    -1.288000000    -1.145000000
O    -1.097000000    -2.394000000     5.095000000
H    -1.311000000    -1.611000000     5.602000000
H    -0.592000000    -2.939000000     5.698000000
O     3.405000000    -0.358000000     5.910000000
H     3.552000000    -0.751000000     6.771000000
H     2.516000000    -0.006000000     5.956000000
O    -1.060000000     4.362000000    -0.021000000
H    -1.732000000     4.931000000     0.354000000
H    -1.435000000     3.483000000     0.031000000
O     5.207000000     0.726000000     3.196000000
H     4.422000000     0.534000000     3.707000000
H     5.560000000    -0.133000000     2.965000000
O     1.158000000    -1.729000000    -6.647000000
H     1.743000000    -1.489000000    -7.366000000
H     1.003000000    -2.666000000    -6.767000000
O     1.661000000    -3.594000000    -0.575000000
H     1.429000000    -2.884000000    -1.173000000
H     2.394000000    -3.248000000    -0.066000000
O    -3.460000000    -1.109000000     1.229000000
H    -3.367000000    -1.174000000     0.279000000
H    -4.322000000    -0.712000000     1.359000000
O    -0.692000000    -4.866000000     0.867000000
H    -1.381000000    -4.269000000     0.576000000
H    -0.136000000    -4.983000000     0.097000000
O    -2.700000000    -2.537000000    -6.692000000
H    -3.477000000    -2.231000000    -7.160000000
H    -2.001000000    -1.949000000    -6.979000000
O    -4.864000000    -5.243000000    -1.460000000
H    -4.211000000    -4.549000000    -1.365000000
H    -4.363000000    -6.055000000    -1.377000000
O     2.360000000    -3.223000000    -4.183000000
H     2.519000000    -2.901000000    -5.070000000
H     1.858000000    -2.527000000    -3.761000000
O    -2.244000000     4.256000000    -2.744000000
H    -1.580000000     3.774000000    -3.238000000
H    -1.819000000     4.463000000    -1.912000000
O    -3.662000000    -1.055000000    -1.286000000
H    -4.331000000    -0.373000000    -1.335000000
H    -3.423000000    -1.223000000    -2.198000000
O     3.088000000     3.872000000     5.828000000
H     3.206000000     3.413000000     6.659000000
H     2.641000000     3.239000000     5.266000000
O    -2.751000000    -1.929000000    -3.913000000
H    -1.938000000    -1.454000000    -3.743000000
H    -2.783000000    -2.015000000    -4.866000000
O    -1.098000000    -4.025000000    -3.205000000
H    -1.487000000    -4.022000000    -4.079000000
H    -0.452000000    -3.318000000    -3.227000000
O    -5.048000000     2.515000000     1.504000000
H    -5.136000000     2.334000000     2.440000000
H    -5.142000000     1.659000000     1.085000000
O    -2.684000000     2.723000000     3.224000000
H    -3.317000000     2.274000000     3.785000000
H    -2.760000000     2.283000000     2.377000000
O     2.302000000     4.372000000    -3.191000000
H     2.622000000     3.921000000    -2.409000000
H     3.093000000     4.582000000    -3.687000000
O     0.625000000    -4.473000000    -6.466000000
H     1.020000000    -5.092000000    -5.852000000
H    -0.317000000    -4.627000000    -6.390000000
O     1.687000000     2.568000000     3.719000000
H     1.575000000     1.954000000     2.993000000
H     1.785000000     3.422000000     3.297000000
O    -0.518000000    -6.989000000    -2.721000000
H     0.260000000    -6.531000000    -2.402000000
H    -0.902000000    -6.390000000    -3.361000000
