158
-3045.24832
C    -0.037000000     1.127000000    -0.977000000
H     0.084000000     1.964000000    -1.659000000
C     0.543000000     1.135000000     0.318000000
H     1.050000000     2.057000000     0.593000000
C     0.467000000     0.034000000     1.165000000
H     0.920000000     0.138000000     2.141000000
C    -0.174000000    -1.117000000     0.709000000
H    -0.180000000    -1.998000000     1.346000000
C    -0.715000000    -1.176000000    -0.550000000
H    -1.257000000    -2.091000000    -0.772000000
C    -0.691000000    -0.062000000    -1.400000000
C    -1.429000000    -0.075000000    -2.785000000
O    -1.978000000    -1.086000000    -3.027000000
O    -1.296000000     0.756000000    -3.640000000
O    -6.570000000    -3.338000000    -5.206000000
H    -7.381000000    -3.117000000    -4.749000000
H    -5.907000000    -2.778000000    -4.802000000
O    -3.198000000    -2.817000000     1.024000000
H    -3.742000000    -2.229000000     0.500000000
H    -2.664000000    -2.233000000     1.563000000
O     1.100000000     1.261000000    -4.548000000
H     1.738000000     0.842000000    -3.971000000
H     0.250000000     1.032000000    -4.172000000
O    -1.047000000     3.132000000     5.558000000
H    -1.856000000     2.678000000     5.797000000
H    -1.327000000     4.020000000     5.337000000
O     6.441000000     2.418000000     0.143000000
H     6.166000000     1.983000000     0.951000000
H     7.373000000     2.215000000     0.067000000
O    -2.245000000    -4.094000000    -3.000000000
H    -1.414000000    -4.393000000    -3.368000000
H    -2.206000000    -3.140000000    -3.062000000
O     5.664000000    -1.365000000     3.250000000
H     6.302000000    -2.063000000     3.099000000
H     5.138000000    -1.676000000     3.987000000
O    -3.810000000     1.965000000    -3.364000000
H    -3.036000000     1.448000000    -3.587000000
H    -3.489000000     2.865000000    -3.310000000
O     0.504000000    -4.528000000     0.738000000
H     0.706000000    -4.094000000    -0.091000000
H     1.312000000    -4.457000000     1.248000000
O    -0.267000000     1.892000000    -7.051000000
H     0.277000000     1.805000000    -6.268000000
H    -0.051000000     1.125000000    -7.580000000
O    -3.010000000    -6.172000000    -4.706000000
H    -3.965000000    -6.210000000    -4.665000000
H    -2.770000000    -5.494000000    -4.074000000
O     3.912000000     2.036000000    -0.852000000
H     3.873000000     1.690000000     0.040000000
H     4.818000000     2.328000000    -0.957000000
O     0.104000000    -2.282000000    -4.258000000
H     0.249000000    -2.188000000    -5.199000000
H    -0.607000000    -1.672000000    -4.063000000
O    -3.558000000     0.339000000     2.889000000
H    -4.466000000     0.481000000     2.620000000
H    -3.604000000    -0.382000000     3.517000000
O    -2.670000000     0.365000000    -5.915000000
H    -2.827000000     1.260000000    -6.217000000
H    -2.102000000     0.467000000    -5.151000000
O     2.108000000     4.505000000    -0.105000000
H     2.919000000     3.998000000    -0.141000000
H     1.808000000     4.413000000     0.799000000
O     1.642000000    -5.456000000     5.130000000
H     1.992000000    -5.086000000     4.320000000
H     0.703000000    -5.541000000     4.968000000
O     1.088000000     1.478000000     5.387000000
H     0.259000000     1.953000000     5.329000000
H     1.618000000     1.833000000     4.674000000
O     1.763000000     4.290000000     2.736000000
H     2.291000000     4.957000000     3.175000000
H     2.235000000     3.472000000     2.888000000
O    -1.998000000     2.080000000     1.874000000
H    -1.302000000     1.699000000     1.338000000
H    -2.487000000     1.326000000     2.203000000
O    -6.077000000     1.179000000    -2.117000000
H    -5.316000000     1.422000000    -2.644000000
H    -6.661000000     0.735000000    -2.731000000
O     4.900000000    -2.658000000    -1.483000000
H     4.333000000    -2.100000000    -0.951000000
H     4.313000000    -3.049000000    -2.130000000
O     1.368000000     4.394000000    -5.797000000
H     1.371000000     5.302000000    -5.494000000
H     1.032000000     3.894000000    -5.053000000
O     0.554000000     6.787000000    -3.562000000
H     0.779000000     5.883000000    -3.345000000
H    -0.318000000     6.913000000    -3.188000000
O     2.981000000    -1.804000000     3.968000000
H     3.626000000    -1.311000000     4.475000000
H     2.300000000    -2.029000000     4.601000000
O     2.452000000    -1.463000000    -0.507000000
H     1.953000000    -2.160000000    -0.934000000
H     1.845000000    -1.094000000     0.135000000
O     0.235000000    -5.617000000    -3.009000000
H     0.370000000    -6.425000000    -2.514000000
H     0.390000000    -5.866000000    -3.921000000
O    -0.720000000    -0.218000000     6.430000000
H    -0.400000000    -0.366000000     7.320000000
H     0.039000000     0.119000000     5.955000000
O     4.359000000    -0.780000000     5.899000000
H     4.186000000    -1.163000000     6.759000000
H     4.701000000     0.094000000     6.090000000
O     2.394000000     1.831000000     7.694000000
H     1.928000000     1.405000000     6.974000000
H     1.720000000     2.332000000     8.152000000
O     3.921000000     0.246000000     1.338000000
H     4.355000000    -0.248000000     2.034000000
H     3.872000000    -0.366000000     0.604000000
O    -0.088000000    -2.052000000    -7.037000000
H    -0.592000000    -2.252000000    -7.826000000
H    -0.241000000    -1.120000000    -6.885000000
O     2.807000000    -4.349000000     2.716000000
H     3.592000000    -4.572000000     2.215000000
H     2.905000000    -3.416000000     2.910000000
O    -1.921000000    -5.710000000     2.001000000
H    -1.247000000    -5.163000000     1.599000000
H    -2.643000000    -5.704000000     1.372000000
O    -2.610000000     2.964000000    -6.156000000
H    -2.501000000     3.399000000    -5.310000000
H    -1.730000000     2.665000000    -6.386000000
O    -3.936000000    -1.972000000    -7.262000000
H    -3.315000000    -2.700000000    -7.231000000
H    -3.400000000    -1.194000000    -7.113000000
O     1.095000000    -3.438000000    -1.722000000
H     0.805000000    -4.273000000    -2.089000000
H     0.710000000    -2.776000000    -2.296000000
O    -1.136000000     4.630000000    -1.215000000
H    -0.335000000     4.123000000    -1.351000000
H    -1.114000000     4.868000000    -0.288000000
O     1.429000000     4.255000000    -2.714000000
H     1.909000000     4.242000000    -1.886000000
H     1.693000000     3.447000000    -3.156000000
O    -4.041000000    -0.627000000    -0.904000000
H    -4.695000000    -0.115000000    -1.380000000
H    -3.318000000    -0.727000000    -1.523000000
O     5.439000000     3.732000000     2.783000000
H     5.223000000     4.503000000     2.257000000
H     6.274000000     3.951000000     3.197000000
O    -4.469000000    -1.486000000    -4.272000000
H    -3.794000000    -1.329000000    -3.611000000
H    -4.074000000    -1.187000000    -5.092000000
O    -3.476000000    -5.180000000    -0.609000000
H    -3.469000000    -4.385000000    -0.076000000
H    -2.922000000    -4.969000000    -1.360000000
O    -4.172000000     2.627000000     0.363000000
H    -4.289000000     1.896000000    -0.244000000
H    -3.405000000     2.386000000     0.883000000
O    -0.828000000     4.969000000     2.025000000
H    -0.170000000     4.964000000     2.720000000
H    -1.079000000     4.051000000     1.926000000
O     2.721000000     0.277000000    -2.649000000
H     2.998000000     1.053000000    -2.161000000
H     2.435000000    -0.340000000    -1.976000000
O     3.350000000     2.182000000     3.116000000
H     4.066000000     2.807000000     2.994000000
H     3.546000000     1.472000000     2.506000000
O    -2.397000000     4.510000000    -3.657000000
H    -2.839000000     5.329000000    -3.879000000
H    -1.720000000     4.765000000    -3.029000000
