158
-2997.14652
C     1.263000000     0.641000000    -0.489000000
H     2.226000000     0.892000000    -0.928000000
C     1.097000000    -0.603000000     0.103000000
H     1.920000000    -1.255000000     0.381000000
C    -0.101000000    -1.085000000     0.545000000
H    -0.160000000    -2.128000000     0.956000000
C    -1.223000000    -0.274000000     0.422000000
H    -2.183000000    -0.548000000     0.853000000
C    -1.139000000     0.924000000    -0.292000000
H    -2.004000000     1.566000000    -0.440000000
C     0.091000000     1.430000000    -0.751000000
C     0.133000000     2.747000000    -1.490000000
O    -0.816000000     3.472000000    -1.373000000
O     1.197000000     3.084000000    -2.072000000
O    -1.302000000    -1.668000000    -2.738000000
H    -0.953000000    -1.074000000    -2.074000000
H    -2.103000000    -2.019000000    -2.348000000
O    -1.988000000     7.088000000     1.399000000
H    -2.941000000     7.009000000     1.420000000
H    -1.745000000     6.817000000     0.513000000
O    -3.289000000     3.610000000    -1.982000000
H    -3.180000000     4.395000000    -2.520000000
H    -2.412000000     3.428000000    -1.644000000
O     1.222000000    -3.018000000     6.466000000
H     1.555000000    -3.635000000     7.117000000
H     1.983000000    -2.808000000     5.924000000
O    -1.819000000    -2.127000000     7.057000000
H    -1.726000000    -1.280000000     7.492000000
H    -0.980000000    -2.263000000     6.617000000
O    -1.145000000     5.959000000    -1.067000000
H    -0.338000000     6.404000000    -1.323000000
H    -0.950000000     5.028000000    -1.172000000
O     3.915000000     2.113000000     2.369000000
H     4.125000000     2.002000000     3.296000000
H     2.981000000     2.319000000     2.358000000
O    -2.052000000     2.072000000    -4.898000000
H    -1.685000000     2.461000000    -4.104000000
H    -2.701000000     1.444000000    -4.580000000
O     5.898000000     5.263000000    -0.729000000
H     5.052000000     4.849000000    -0.905000000
H     6.538000000     4.564000000    -0.861000000
O    -3.352000000     6.385000000    -3.809000000
H    -3.150000000     7.159000000    -4.335000000
H    -3.347000000     6.702000000    -2.906000000
O     1.122000000     5.339000000    -3.652000000
H     0.905000000     4.479000000    -3.292000000
H     1.398000000     5.853000000    -2.893000000
O    -0.013000000    -5.073000000     5.228000000
H     0.798000000    -5.571000000     5.117000000
H     0.184000000    -4.447000000     5.924000000
O    -3.957000000     3.296000000     1.714000000
H    -4.577000000     2.994000000     2.377000000
H    -3.875000000     2.558000000     1.109000000
O     4.470000000    -3.325000000     1.347000000
H     3.539000000    -3.511000000     1.468000000
H     4.522000000    -2.369000000     1.318000000
O    -0.915000000    -0.664000000    -5.298000000
H    -0.948000000    -1.175000000    -4.489000000
H    -1.159000000     0.223000000    -5.031000000
O     2.187000000     1.884000000    -3.958000000
H     1.666000000     2.269000000    -3.253000000
H     2.629000000     2.629000000    -4.364000000
O     0.942000000    -3.265000000    -3.782000000
H     0.147000000    -2.878000000    -3.415000000
H     1.538000000    -2.525000000    -3.896000000
O    -1.000000000    -3.043000000     3.407000000
H    -0.554000000    -2.310000000     3.832000000
H    -0.842000000    -3.788000000     3.987000000
O     6.742000000    -3.649000000    -0.642000000
H     5.866000000    -3.691000000    -0.259000000
H     7.257000000    -4.272000000    -0.131000000
O    -4.915000000    -0.409000000    -1.292000000
H    -5.281000000     0.076000000    -0.553000000
H    -4.761000000    -1.289000000    -0.949000000
O    -4.799000000     5.662000000    -0.019000000
H    -4.556000000     4.788000000    -0.324000000
H    -4.528000000     5.680000000     0.899000000
O    -5.185000000    -3.044000000    -0.326000000
H    -4.471000000    -3.335000000     0.241000000
H    -5.560000000    -3.854000000    -0.673000000
O     4.654000000    -1.436000000    -2.735000000
H     4.130000000    -0.837000000    -2.203000000
H     4.468000000    -1.179000000    -3.638000000
O    -5.635000000     2.475000000    -2.379000000
H    -5.754000000     1.927000000    -1.603000000
H    -4.696000000     2.661000000    -2.398000000
O    -1.209000000    -5.431000000     0.645000000
H    -1.650000000    -5.301000000    -0.194000000
H    -0.309000000    -5.657000000     0.410000000
O     2.940000000     4.206000000    -0.389000000
H     2.334000000     3.806000000    -1.013000000
H     2.377000000     4.690000000     0.214000000
O    -3.712000000    -3.443000000     5.471000000
H    -3.136000000    -3.110000000     6.159000000
H    -3.923000000    -2.675000000     4.941000000
O     2.851000000    -5.062000000     4.486000000
H     2.462000000    -4.646000000     3.716000000
H     3.411000000    -5.751000000     4.129000000
O    -1.850000000    -7.546000000     2.227000000
H    -1.590000000    -8.094000000     1.486000000
H    -1.675000000    -6.651000000     1.935000000
O     0.534000000    -1.043000000     4.299000000
H     1.459000000    -1.223000000     4.129000000
H     0.538000000    -0.482000000     5.075000000
O     1.563000000     6.935000000    -1.305000000
H     1.852000000     6.673000000    -0.431000000
H     2.273000000     7.484000000    -1.637000000
O     4.940000000     2.329000000    -0.315000000
H     4.224000000     2.952000000    -0.437000000
H     4.940000000     2.145000000     0.624000000
O    -4.172000000    -0.877000000     4.794000000
H    -3.874000000     0.032000000     4.774000000
H    -5.119000000    -0.816000000     4.922000000
O    -3.100000000    -3.612000000     1.811000000
H    -2.736000000    -4.496000000     1.782000000
H    -2.363000000    -3.057000000     2.067000000
O     1.711000000    -4.068000000     2.251000000
H     0.891000000    -3.595000000     2.388000000
H     1.475000000    -4.797000000     1.677000000
O    -0.275000000     1.202000000     2.812000000
H    -0.360000000     0.924000000     1.901000000
H    -0.167000000     0.387000000     3.302000000
O    -1.569000000     3.709000000     3.046000000
H    -2.256000000     3.627000000     2.384000000
H    -0.892000000     3.094000000     2.766000000
O    -2.551000000    -5.376000000    -1.995000000
H    -3.378000000    -5.753000000    -1.696000000
H    -2.795000000    -4.813000000    -2.730000000
O    -0.972000000     5.750000000    -5.590000000
H    -0.275000000     6.057000000    -5.010000000
H    -1.781000000     5.988000000    -5.138000000
O     3.947000000     5.246000000    -3.128000000
H     3.789000000     5.920000000    -2.467000000
H     3.200000000     5.314000000    -3.722000000
O    -3.797000000     0.216000000    -3.702000000
H    -4.606000000     0.624000000    -4.011000000
H    -3.907000000     0.153000000    -2.753000000
O     5.561000000     3.033000000    -2.938000000
H     4.917000000     3.719000000    -3.109000000
H     5.380000000     2.752000000    -2.041000000
O     0.917000000    -7.484000000     0.241000000
H     0.036000000    -7.855000000     0.286000000
H     1.499000000    -8.230000000     0.384000000
O     2.412000000    -0.929000000    -4.785000000
H     2.283000000     0.009000000    -4.646000000
H     3.361000000    -1.033000000    -4.855000000
O    -5.573000000    -3.146000000     2.918000000
H    -5.535000000    -2.422000000     3.543000000
H    -4.672000000    -3.243000000     2.609000000
O    -6.676000000     1.726000000     0.138000000
H    -7.411000000     1.128000000     0.281000000
H    -6.686000000     2.304000000     0.900000000
O     1.341000000    -4.822000000    -0.751000000
H     1.677000000    -5.708000000    -0.614000000
H     1.708000000    -4.555000000    -1.594000000
O     3.451000000    -1.070000000     3.985000000
H     3.938000000    -0.256000000     4.110000000
H     4.118000000    -1.715000000     3.749000000
