158
-3045.79072
C     0.191000000     1.009000000    -1.041000000
H     0.206000000     1.821000000    -1.763000000
C     0.657000000     1.132000000     0.267000000
H     1.206000000     2.013000000     0.588000000
C     0.427000000     0.080000000     1.203000000
H     0.800000000     0.171000000     2.211000000
C    -0.231000000    -1.104000000     0.766000000
H    -0.424000000    -1.951000000     1.419000000
C    -0.570000000    -1.253000000    -0.631000000
H    -0.912000000    -2.214000000    -1.010000000
C    -0.343000000    -0.219000000    -1.519000000
C    -0.876000000    -0.236000000    -2.958000000
O    -1.472000000    -1.228000000    -3.383000000
O    -1.069000000     0.775000000    -3.620000000
O    -3.715000000    -0.708000000     0.827000000
H    -3.921000000    -0.485000000    -0.081000000
H    -3.226000000     0.047000000     1.154000000
O     0.490000000     1.662000000    -5.478000000
H     1.321000000     1.194000000    -5.402000000
H    -0.015000000     1.380000000    -4.716000000
O    -1.006000000    -3.733000000    -2.859000000
H    -0.275000000    -3.547000000    -2.270000000
H    -1.316000000    -2.871000000    -3.135000000
O    -5.020000000    -2.430000000    -2.266000000
H    -4.668000000    -2.241000000    -3.136000000
H    -5.679000000    -3.108000000    -2.416000000
O    -2.294000000     2.991000000    -2.813000000
H    -2.603000000     2.229000000    -3.302000000
H    -1.362000000     3.049000000    -3.024000000
O     2.141000000    -5.313000000     2.897000000
H     3.062000000    -5.452000000     2.677000000
H     1.764000000    -4.921000000     2.109000000
O    -3.460000000    -4.721000000    -3.310000000
H    -3.483000000    -4.591000000    -4.258000000
H    -2.584000000    -4.438000000    -3.050000000
O    -3.205000000    -3.470000000    -6.090000000
H    -4.071000000    -3.491000000    -6.496000000
H    -3.245000000    -2.736000000    -5.478000000
O     5.857000000     0.692000000    -0.244000000
H     5.944000000    -0.007000000    -0.893000000
H     5.286000000     0.323000000     0.430000000
O     0.425000000    -1.888000000    -5.330000000
H     0.040000000    -1.353000000    -6.024000000
H    -0.079000000    -1.664000000    -4.547000000
O    -2.620000000     1.449000000     1.755000000
H    -2.389000000     2.119000000     2.399000000
H    -2.849000000     1.943000000     0.968000000
O    -2.608000000     3.458000000     3.247000000
H    -2.250000000     4.090000000     2.623000000
H    -3.484000000     3.789000000     3.447000000
O    -2.141000000     0.535000000    -6.574000000
H    -1.785000000     0.976000000    -7.345000000
H    -1.583000000     0.825000000    -5.853000000
O     0.883000000     1.937000000     4.095000000
H     0.890000000     2.781000000     3.644000000
H     1.018000000     2.157000000     5.017000000
O     0.335000000     4.362000000     2.346000000
H     0.153000000     4.637000000     1.448000000
H     1.127000000     4.843000000     2.588000000
O     2.888000000    -1.039000000    -4.766000000
H     2.064000000    -1.445000000    -5.035000000
H     3.539000000    -1.392000000    -5.372000000
O    -4.248000000     1.181000000    -5.097000000
H    -3.540000000     1.283000000    -5.733000000
H    -4.826000000     1.926000000    -5.260000000
O     4.654000000    -0.943000000     1.906000000
H     4.339000000    -0.303000000     2.544000000
H     3.924000000    -1.054000000     1.297000000
O     2.298000000     3.276000000    -3.416000000
H     2.631000000     2.413000000    -3.170000000
H     2.296000000     3.774000000    -2.598000000
O     4.467000000    -3.255000000     5.297000000
H     4.443000000    -2.312000000     5.455000000
H     3.657000000    -3.584000000     5.686000000
O     2.948000000    -1.112000000    -0.693000000
H     2.325000000    -1.800000000    -0.926000000
H     2.404000000    -0.397000000    -0.363000000
O    -0.598000000    -2.583000000     4.937000000
H    -0.846000000    -1.789000000     4.463000000
H     0.350000000    -2.512000000     5.045000000
O    -1.351000000    -0.376000000     3.679000000
H    -1.414000000    -0.339000000     2.724000000
H    -1.403000000     0.538000000     3.958000000
O     4.346000000    -0.404000000     6.015000000
H     3.924000000    -0.543000000     6.863000000
H     4.967000000     0.307000000     6.171000000
O    -2.004000000     3.138000000     6.027000000
H    -2.656000000     2.448000000     6.150000000
H    -2.068000000     3.365000000     5.099000000
O     0.524000000     3.626000000     6.458000000
H    -0.416000000     3.456000000     6.518000000
H     0.743000000     4.054000000     7.285000000
O     3.361000000     0.652000000     3.762000000
H     3.449000000     0.237000000     4.621000000
H     2.556000000     1.166000000     3.826000000
O     0.674000000     0.161000000    -7.848000000
H     0.498000000     0.618000000    -7.025000000
H     1.608000000     0.303000000    -8.006000000
O    -0.123000000    -6.824000000     1.792000000
H     0.416000000    -6.501000000     2.515000000
H    -0.959000000    -6.370000000     1.896000000
O    -0.081000000     4.232000000    -7.261000000
H    -0.164000000     3.678000000    -6.485000000
H     0.436000000     3.710000000    -7.874000000
O    -2.822000000    -1.314000000    -8.673000000
H    -2.234000000    -2.034000000    -8.900000000
H    -2.476000000    -0.973000000    -7.848000000
O     1.410000000    -3.016000000    -2.004000000
H     1.387000000    -3.967000000    -1.892000000
H     2.062000000    -2.871000000    -2.689000000
O     4.532000000     3.072000000     4.564000000
H     3.964000000     2.404000000     4.181000000
H     5.263000000     3.146000000     3.951000000
O     2.182000000     5.167000000    -1.461000000
H     2.782000000     5.150000000    -0.716000000
H     1.312000000     5.218000000    -1.067000000
O     4.109000000     4.669000000     0.515000000
H     4.502000000     5.168000000     1.232000000
H     4.674000000     3.903000000     0.419000000
O    -2.069000000    -5.168000000     2.196000000
H    -2.687000000    -5.414000000     2.885000000
H    -2.596000000    -4.676000000     1.567000000
O    -3.799000000     0.302000000    -1.648000000
H    -4.172000000    -0.474000000    -2.066000000
H    -2.905000000     0.351000000    -1.987000000
O    -3.820000000    -1.361000000    -4.386000000
H    -2.899000000    -1.255000000    -4.147000000
H    -4.073000000    -0.514000000    -4.752000000
O    -3.694000000    -3.438000000    -0.118000000
H    -3.519000000    -2.610000000     0.329000000
H    -4.065000000    -3.180000000    -0.962000000
O    -3.706000000     3.300000000    -0.251000000
H    -4.644000000     3.119000000    -0.308000000
H    -3.365000000     3.074000000    -1.116000000
O    -0.201000000     5.376000000    -0.379000000
H    -1.143000000     5.449000000    -0.534000000
H     0.051000000     6.229000000    -0.026000000
O    -4.273000000    -2.207000000     3.999000000
H    -3.556000000    -1.801000000     3.513000000
H    -4.390000000    -1.648000000     4.767000000
O     3.461000000     0.771000000    -2.996000000
H     4.076000000     0.479000000    -2.323000000
H     3.201000000    -0.032000000    -3.447000000
O     0.118000000    -5.527000000    -4.690000000
H     0.933000000    -5.041000000    -4.814000000
H    -0.423000000    -4.953000000    -4.148000000
O    -2.673000000     5.940000000    -4.336000000
H    -2.022000000     5.315000000    -4.017000000
H    -2.194000000     6.485000000    -4.961000000
O     1.493000000    -4.352000000     5.360000000
H     0.664000000    -4.714000000     5.673000000
H     1.590000000    -4.705000000     4.476000000
O    -0.030000000     4.380000000    -4.282000000
H     0.291000000     5.253000000    -4.054000000
H     0.660000000     3.786000000    -3.987000000
O    -2.822000000    -7.229000000     0.106000000
H    -3.545000000    -6.964000000    -0.462000000
H    -2.182000000    -6.521000000     0.026000000
