158
-3000.89226
C    -1.246000000     0.584000000    -0.519000000
H    -2.101000000     1.180000000    -0.828000000
C    -0.592000000     0.989000000     0.679000000
H    -1.066000000     1.779000000     1.255000000
C     0.586000000     0.340000000     1.040000000
H     1.180000000     0.618000000     1.863000000
C     1.042000000    -0.723000000     0.283000000
H     2.002000000    -1.173000000     0.522000000
C     0.400000000    -1.091000000    -0.909000000
H     0.757000000    -1.915000000    -1.523000000
C    -0.782000000    -0.499000000    -1.242000000
C    -1.440000000    -0.850000000    -2.581000000
O    -0.936000000    -1.641000000    -3.350000000
O    -2.470000000    -0.274000000    -2.884000000
O    -3.901000000     0.829000000     2.689000000
H    -3.190000000     0.993000000     3.308000000
H    -3.868000000    -0.115000000     2.532000000
O    -0.885000000     1.786000000    -5.458000000
H    -0.015000000     1.581000000    -5.116000000
H    -1.489000000     1.384000000    -4.834000000
O     0.554000000     6.213000000     3.791000000
H     1.273000000     5.587000000     3.704000000
H     0.250000000     6.105000000     4.692000000
O    -1.285000000    -4.381000000    -3.944000000
H    -0.594000000    -4.552000000    -3.303000000
H    -1.781000000    -3.651000000    -3.572000000
O    -4.744000000    -3.509000000    -2.229000000
H    -4.289000000    -3.103000000    -2.967000000
H    -4.807000000    -4.435000000    -2.466000000
O     6.890000000    -1.505000000     0.984000000
H     6.143000000    -0.918000000     1.098000000
H     6.498000000    -2.368000000     0.846000000
O    -3.324000000     5.643000000     1.810000000
H    -3.786000000     4.805000000     1.828000000
H    -3.955000000     6.257000000     1.435000000
O     2.982000000    -3.626000000     0.193000000
H     2.553000000    -3.765000000     1.038000000
H     3.889000000    -3.896000000     0.338000000
O    -4.578000000     5.196000000    -1.150000000
H    -4.928000000     5.863000000    -0.559000000
H    -4.723000000     4.369000000    -0.691000000
O    -4.828000000    -4.423000000    -5.081000000
H    -5.659000000    -3.972000000    -5.233000000
H    -4.176000000    -3.876000000    -5.519000000
O    -4.563000000     3.555000000     4.439000000
H    -4.584000000     3.536000000     3.482000000
H    -3.936000000     2.873000000     4.679000000
O     0.850000000    -2.450000000    -5.115000000
H     0.313000000    -2.069000000    -4.421000000
H     0.649000000    -3.385000000    -5.088000000
O    -1.637000000     0.575000000     4.604000000
H    -1.310000000    -0.014000000     3.924000000
H    -1.792000000     0.007000000     5.359000000
O    -1.673000000     3.074000000     3.629000000
H    -1.156000000     2.272000000     3.705000000
H    -1.389000000     3.464000000     2.802000000
O     2.222000000     3.833000000     2.221000000
H     1.404000000     3.858000000     1.724000000
H     2.292000000     2.926000000     2.520000000
O    -0.269000000     4.463000000     1.367000000
H    -0.419000000     5.155000000     2.011000000
H    -0.737000000     4.758000000     0.586000000
O    -6.566000000     1.230000000    -4.446000000
H    -6.977000000     0.513000000    -4.930000000
H    -5.629000000     1.118000000    -4.602000000
O     2.995000000     1.165000000     6.055000000
H     3.724000000     0.623000000     5.754000000
H     2.725000000     0.766000000     6.882000000
O    -4.077000000     0.661000000    -4.829000000
H    -3.507000000     0.418000000    -4.099000000
H    -3.802000000     1.549000000    -5.061000000
O     3.571000000     1.190000000     0.540000000
H     4.406000000     0.752000000     0.373000000
H     2.921000000     0.488000000     0.503000000
O    -6.419000000     0.211000000     1.511000000
H    -5.505000000     0.490000000     1.561000000
H    -6.722000000     0.221000000     2.419000000
O     3.974000000    -2.927000000     3.538000000
H     4.218000000    -2.815000000     4.457000000
H     3.056000000    -3.194000000     3.565000000
O     1.223000000     1.290000000    -3.917000000
H     1.868000000     0.605000000    -3.744000000
H     1.130000000     1.748000000    -3.081000000
O    -2.141000000     5.735000000     4.234000000
H    -2.386000000     5.799000000     3.311000000
H    -2.081000000     4.794000000     4.402000000
O     3.849000000    -2.315000000    -2.022000000
H     4.068000000    -3.150000000    -2.437000000
H     3.992000000    -2.467000000    -1.088000000
O    -1.151000000    -1.191000000     2.593000000
H    -1.218000000    -2.041000000     2.157000000
H    -0.672000000    -0.641000000     1.973000000
O    -0.558000000     2.919000000     6.511000000
H    -1.121000000     2.526000000     7.179000000
H    -1.048000000     2.818000000     5.695000000
O     1.010000000     1.967000000     4.015000000
H     1.739000000     1.350000000     4.087000000
H     0.831000000     2.234000000     4.916000000
O     4.954000000    -0.363000000     2.592000000
H     5.337000000    -0.308000000     3.467000000
H     4.534000000    -1.223000000     2.568000000
O     5.661000000    -3.982000000     1.204000000
H     6.257000000    -4.723000000     1.315000000
H     5.329000000    -3.808000000     2.085000000
O    -4.943000000     3.466000000     1.732000000
H    -4.790000000     2.524000000     1.653000000
H    -5.893000000     3.549000000     1.815000000
O     0.964000000    -4.729000000    -1.299000000
H     1.819000000    -4.342000000    -1.109000000
H     0.449000000    -4.572000000    -0.508000000
O    -2.198000000    -1.480000000    -7.953000000
H    -1.887000000    -2.170000000    -8.540000000
H    -2.284000000    -1.911000000    -7.102000000
O     2.972000000    -0.930000000    -4.111000000
H     3.250000000    -1.554000000    -3.441000000
H     2.372000000    -1.428000000    -4.667000000
O     5.973000000     2.611000000     3.417000000
H     5.394000000     1.973000000     2.999000000
H     6.764000000     2.604000000     2.878000000
O     0.562000000     3.815000000    -2.152000000
H     0.720000000     3.674000000    -1.218000000
H    -0.361000000     4.065000000    -2.203000000
O     3.215000000     6.376000000     0.723000000
H     3.037000000     5.454000000     0.537000000
H     3.873000000     6.357000000     1.418000000
O    -0.791000000    -4.099000000     1.426000000
H    -0.879000000    -4.344000000     2.348000000
H    -1.681000000    -3.886000000     1.149000000
O    -4.341000000    -0.727000000    -1.017000000
H    -4.879000000    -1.191000000    -1.659000000
H    -3.568000000    -0.450000000    -1.507000000
O    -3.072000000    -2.018000000    -5.289000000
H    -2.418000000    -1.879000000    -4.605000000
H    -3.736000000    -1.347000000    -5.126000000
O    -3.525000000    -3.405000000     0.954000000
H    -4.171000000    -3.364000000     1.660000000
H    -3.634000000    -2.580000000     0.482000000
O    -4.957000000     2.191000000    -1.399000000
H    -5.408000000     1.522000000    -0.883000000
H    -4.892000000     1.813000000    -2.276000000
O     4.570000000     5.162000000     2.926000000
H     5.195000000     4.702000000     3.487000000
H     3.995000000     4.474000000     2.593000000
O    -1.932000000     4.647000000    -1.757000000
H    -2.755000000     4.765000000    -1.283000000
H    -2.003000000     5.234000000    -2.510000000
O    -1.377000000    -4.288000000    -6.733000000
H    -0.506000000    -4.643000000    -6.557000000
H    -1.604000000    -3.804000000    -5.939000000
O     4.721000000     3.969000000    -0.457000000
H     5.625000000     3.657000000    -0.414000000
H     4.200000000     3.242000000    -0.116000000
O     3.631000000     4.064000000     5.876000000
H     3.402000000     3.144000000     5.746000000
H     4.363000000     4.044000000     6.493000000
O     1.507000000    -3.579000000     4.104000000
H     1.375000000    -3.304000000     5.012000000
H     0.702000000    -4.043000000     3.874000000
