158
-3021.31160
C    -1.160000000     0.111000000    -0.778000000
H    -2.019000000     0.031000000    -1.439000000
C    -0.870000000    -0.942000000     0.105000000
H    -1.473000000    -1.842000000     0.194000000
C     0.303000000    -0.915000000     0.798000000
H     0.608000000    -1.661000000     1.564000000
C     1.113000000     0.209000000     0.692000000
H     2.082000000     0.216000000     1.186000000
C     0.784000000     1.253000000    -0.198000000
H     1.481000000     2.085000000    -0.259000000
C    -0.365000000     1.194000000    -1.007000000
C    -0.849000000     2.302000000    -1.907000000
O    -0.207000000     3.324000000    -2.077000000
O    -1.814000000     2.110000000    -2.678000000
O     5.026000000     1.782000000    -3.811000000
H     4.768000000     2.365000000    -3.097000000
H     4.249000000     1.248000000    -3.976000000
O    -3.458000000    -5.160000000    -0.454000000
H    -2.630000000    -5.285000000     0.010000000
H    -3.255000000    -5.370000000    -1.366000000
O    -4.212000000     2.350000000     0.945000000
H    -4.354000000     1.404000000     0.908000000
H    -3.499000000     2.461000000     1.575000000
O     2.592000000     0.547000000    -5.272000000
H     1.773000000     0.433000000    -4.790000000
H     2.350000000     1.076000000    -6.033000000
O    -2.645000000     7.203000000    -4.335000000
H    -1.955000000     7.496000000    -3.740000000
H    -2.703000000     6.259000000    -4.188000000
O     0.465000000    -6.777000000     3.309000000
H     1.199000000    -6.723000000     2.698000000
H     0.058000000    -5.911000000     3.272000000
O     5.951000000    -2.561000000     2.079000000
H     5.932000000    -2.763000000     3.015000000
H     6.816000000    -2.179000000     1.934000000
O    -2.805000000    -3.012000000     4.389000000
H    -2.810000000    -3.385000000     3.507000000
H    -3.624000000    -2.518000000     4.445000000
O     4.300000000     5.537000000    -3.488000000
H     4.358000000     5.614000000    -4.440000000
H     3.679000000     4.824000000    -3.342000000
O    -2.051000000     1.243000000     2.438000000
H    -1.553000000     0.873000000     1.709000000
H    -1.384000000     1.544000000     3.056000000
O    -3.348000000     1.721000000    -4.885000000
H    -2.620000000     1.965000000    -4.313000000
H    -2.937000000     1.233000000    -5.599000000
O    -1.078000000     4.462000000     2.034000000
H    -0.461000000     5.124000000     2.345000000
H    -0.940000000     3.714000000     2.616000000
O    -4.199000000     4.555000000    -0.954000000
H    -4.441000000     5.383000000    -0.541000000
H    -4.140000000     3.933000000    -0.229000000
O     2.645000000    -6.153000000     1.218000000
H     2.651000000    -5.857000000     0.308000000
H     3.270000000    -6.878000000     1.237000000
O    -0.574000000     5.703000000    -0.418000000
H    -0.973000000     5.204000000     0.294000000
H    -0.542000000     5.090000000    -1.152000000
O    -0.372000000    -2.270000000     4.734000000
H    -1.216000000    -2.718000000     4.684000000
H    -0.467000000    -1.657000000     5.463000000
O    -2.703000000     4.717000000    -3.141000000
H    -3.048000000     4.797000000    -2.252000000
H    -2.229000000     3.885000000    -3.140000000
O     2.523000000     3.705000000    -2.818000000
H     2.639000000     3.622000000    -1.871000000
H     1.634000000     3.389000000    -2.979000000
O     1.303000000     6.413000000    -5.542000000
H     2.111000000     6.169000000    -5.994000000
H     0.997000000     5.599000000    -5.142000000
O    -1.485000000     7.920000000    -1.853000000
H    -1.421000000     6.969000000    -1.767000000
H    -0.580000000     8.226000000    -1.803000000
O     4.450000000    -1.177000000    -2.334000000
H     4.531000000    -0.560000000    -1.607000000
H     3.511000000    -1.352000000    -2.396000000
O     0.599000000    -4.062000000     2.723000000
H     0.347000000    -3.249000000     3.161000000
H     1.524000000    -4.175000000     2.938000000
O    -1.976000000     0.021000000    -6.537000000
H    -2.236000000    -0.863000000    -6.797000000
H    -1.762000000     0.460000000    -7.360000000
O     3.318000000    -4.429000000    -2.816000000
H     4.127000000    -4.801000000    -2.467000000
H     3.391000000    -3.490000000    -2.643000000
O    -1.181000000    -2.254000000    -2.909000000
H    -1.159000000    -3.201000000    -2.768000000
H    -1.916000000    -1.950000000    -2.377000000
O    -0.532000000    -5.273000000     0.387000000
H     0.205000000    -5.038000000     0.951000000
H    -0.166000000    -5.277000000    -0.497000000
O     2.772000000     1.598000000     4.188000000
H     2.415000000     1.743000000     3.312000000
H     2.140000000     2.012000000     4.776000000
O    -2.641000000    -5.928000000     2.249000000
H    -2.356000000    -6.260000000     3.100000000
H    -1.835000000    -5.858000000     1.737000000
O    -3.425000000     0.137000000     4.411000000
H    -3.752000000     0.965000000     4.763000000
H    -2.622000000     0.374000000     3.947000000
O    -4.581000000    -3.245000000     1.140000000
H    -4.072000000    -3.739000000     0.497000000
H    -5.400000000    -3.733000000     1.224000000
O    -5.896000000     4.548000000    -3.629000000
H    -5.302000000     4.715000000    -2.898000000
H    -5.495000000     5.000000000    -4.372000000
O     2.022000000     7.123000000    -0.120000000
H     1.267000000     6.655000000    -0.475000000
H     2.371000000     7.614000000    -0.865000000
O     5.553000000     3.017000000    -1.126000000
H     6.487000000     2.867000000    -1.273000000
H     5.523000000     3.707000000    -0.463000000
O    -5.646000000     0.223000000    -5.388000000
H    -5.468000000    -0.673000000    -5.673000000
H    -4.782000000     0.593000000    -5.205000000
O     1.601000000    -2.176000000    -2.153000000
H     1.458000000    -1.638000000    -1.375000000
H     0.766000000    -2.149000000    -2.621000000
O     3.436000000    -3.552000000     3.102000000
H     3.766000000    -2.696000000     2.830000000
H     3.837000000    -4.169000000     2.490000000
O    -4.433000000     0.442000000    -2.158000000
H    -4.949000000     0.917000000    -2.810000000
H    -3.686000000     1.014000000    -1.982000000
O    -0.233000000     2.723000000     3.726000000
H     0.009000000     2.981000000     4.616000000
H     0.602000000     2.643000000     3.265000000
O    -2.167000000     4.407000000    -6.790000000
H    -3.006000000     3.948000000    -6.823000000
H    -1.901000000     4.354000000    -5.872000000
O    -4.362000000    -0.413000000     1.357000000
H    -3.757000000    -0.135000000     2.044000000
H    -4.412000000    -1.364000000     1.452000000
O     1.946000000     3.347000000     2.230000000
H     1.637000000     3.787000000     1.438000000
H     2.523000000     3.984000000     2.650000000
O    -7.173000000    -0.631000000    -2.478000000
H    -6.456000000    -0.575000000    -1.847000000
H    -6.743000000    -0.603000000    -3.333000000
O    -3.670000000    -1.940000000    -1.357000000
H    -3.605000000    -1.952000000    -0.402000000
H    -4.090000000    -1.103000000    -1.557000000
O     0.203000000     0.002000000    -4.448000000
H    -0.252000000    -0.641000000    -3.904000000
H    -0.242000000    -0.043000000    -5.294000000
O     4.681000000     0.596000000    -0.258000000
H     5.027000000     0.485000000     0.628000000
H     5.118000000     1.381000000    -0.588000000
O     4.012000000    -2.852000000     6.451000000
H     3.174000000    -3.198000000     6.144000000
H     3.873000000    -1.907000000     6.513000000
O     1.384000000    -4.425000000     5.860000000
H     0.778000000    -3.840000000     5.406000000
H     0.962000000    -4.601000000     6.701000000
O     0.069000000     3.957000000    -4.783000000
H    -0.207000000     3.649000000    -3.920000000
H     0.573000000     3.229000000    -5.147000000
