158
-3028.16071
C    -0.792000000     0.731000000    -1.127000000
H    -1.308000000     1.089000000    -2.014000000
C    -0.595000000    -0.691000000    -0.914000000
H    -0.790000000    -1.398000000    -1.716000000
C     0.055000000    -1.240000000     0.211000000
H     0.063000000    -2.350000000     0.355000000
C     0.616000000    -0.349000000     1.151000000
H     1.076000000    -0.779000000     2.037000000
C     0.456000000     1.030000000     0.981000000
H     1.061000000     1.717000000     1.568000000
C    -0.205000000     1.585000000    -0.184000000
C    -0.279000000     3.034000000    -0.476000000
O    -0.176000000     3.857000000     0.379000000
O    -0.251000000     3.451000000    -1.633000000
O     2.667000000     4.716000000    -5.752000000
H     2.020000000     4.258000000    -5.217000000
H     3.195000000     4.018000000    -6.139000000
O     2.698000000     7.255000000    -2.686000000
H     3.195000000     6.699000000    -3.286000000
H     2.093000000     6.656000000    -2.249000000
O    -2.901000000    -6.809000000     0.304000000
H    -3.534000000    -7.457000000     0.614000000
H    -2.902000000    -6.910000000    -0.648000000
O    -2.557000000     0.419000000    -4.249000000
H    -1.799000000    -0.090000000    -3.960000000
H    -2.218000000     1.306000000    -4.370000000
O     2.076000000    -1.411000000     6.644000000
H     2.669000000    -0.731000000     6.322000000
H     2.137000000    -2.109000000     5.992000000
O     0.622000000    -4.938000000     2.749000000
H     0.133000000    -5.228000000     1.979000000
H     1.144000000    -4.199000000     2.438000000
O    -0.109000000     8.251000000    -1.093000000
H     0.241000000     7.375000000    -0.929000000
H    -1.031000000     8.190000000    -0.843000000
O     1.691000000    -2.242000000    -3.344000000
H     2.517000000    -1.836000000    -3.081000000
H     1.147000000    -1.511000000    -3.637000000
O    -0.854000000    -1.833000000    -4.372000000
H    -1.243000000    -2.653000000    -4.067000000
H    -0.545000000    -2.030000000    -5.257000000
O    -2.042000000     1.057000000     3.627000000
H    -2.666000000     0.352000000     3.799000000
H    -1.224000000     0.754000000     4.021000000
O    -2.981000000    -1.245000000     1.256000000
H    -2.997000000    -2.179000000     1.048000000
H    -2.120000000    -0.950000000     0.960000000
O     4.059000000     4.232000000    -2.009000000
H     3.724000000     4.204000000    -1.113000000
H     3.359000000     3.851000000    -2.539000000
O     0.779000000     0.770000000     4.474000000
H     0.777000000     1.570000000     3.949000000
H     1.533000000     0.275000000     4.153000000
O    -4.021000000     4.499000000    -3.520000000
H    -3.861000000     5.395000000    -3.815000000
H    -4.490000000     4.601000000    -2.691000000
O    -2.863000000     6.566000000     0.810000000
H    -2.387000000     6.177000000     0.077000000
H    -2.689000000     5.980000000     1.547000000
O    -1.943000000    -4.129000000    -4.051000000
H    -2.266000000    -4.722000000    -3.373000000
H    -2.627000000    -4.134000000    -4.720000000
O    -2.236000000     5.211000000     3.040000000
H    -2.698000000     4.552000000     3.557000000
H    -2.028000000     5.905000000     3.667000000
O     0.109000000     3.814000000    -5.568000000
H    -0.327000000     4.551000000    -5.997000000
H    -0.366000000     3.702000000    -4.744000000
O     4.419000000    -1.589000000     2.038000000
H     5.232000000    -1.210000000     1.706000000
H     4.674000000    -2.034000000     2.846000000
O    -1.838000000     5.509000000    -1.487000000
H    -1.556000000     5.896000000    -2.316000000
H    -1.137000000     4.898000000    -1.258000000
O    -3.033000000     3.127000000     1.144000000
H    -2.142000000     3.470000000     1.088000000
H    -2.964000000     2.374000000     1.731000000
O    -1.789000000     3.153000000    -3.873000000
H    -2.606000000     3.609000000    -3.674000000
H    -1.242000000     3.293000000    -3.100000000
O     3.171000000     0.159000000     3.698000000
H     3.775000000     0.322000000     4.422000000
H     3.394000000    -0.720000000     3.392000000
O     0.243000000    -6.566000000     5.089000000
H     0.142000000    -5.857000000     4.454000000
H     1.109000000    -6.424000000     5.471000000
O    -4.655000000     4.592000000    -0.565000000
H    -4.541000000     3.710000000    -0.209000000
H    -4.011000000     5.123000000    -0.097000000
O    -0.323000000    -4.997000000    -0.321000000
H    -0.675000000    -5.328000000    -1.147000000
H     0.606000000    -4.849000000    -0.499000000
O     2.933000000    -0.793000000    -1.282000000
H     3.159000000     0.115000000    -1.077000000
H     2.017000000    -0.877000000    -1.018000000
O    -2.289000000    -3.934000000     1.105000000
H    -1.586000000    -4.146000000     0.491000000
H    -2.940000000    -4.622000000     0.969000000
O     4.872000000    -6.079000000     0.105000000
H     4.319000000    -6.814000000    -0.160000000
H     4.850000000    -5.482000000    -0.642000000
O     2.288000000     5.611000000     3.957000000
H     1.789000000     4.921000000     3.520000000
H     2.002000000     6.420000000     3.532000000
O     0.463000000     3.625000000     3.066000000
H     0.442000000     3.266000000     2.179000000
H    -0.439000000     3.898000000     3.235000000
O    -0.648000000     6.676000000    -3.587000000
H     0.292000000     6.832000000    -3.678000000
H    -1.045000000     7.195000000    -4.286000000
O     3.753000000     1.208000000     0.680000000
H     4.660000000     0.914000000     0.766000000
H     3.230000000     0.442000000     0.917000000
O     2.451000000    -3.353000000     1.519000000
H     2.935000000    -2.583000000     1.819000000
H     2.548000000    -3.341000000     0.567000000
O    -0.985000000    -2.685000000     6.381000000
H    -0.407000000    -1.934000000     6.515000000
H    -1.083000000    -2.745000000     5.431000000
O     4.709000000    -4.701000000    -2.188000000
H     4.537000000    -4.435000000    -3.091000000
H     5.032000000    -3.908000000    -1.762000000
O    -4.756000000    -0.067000000    -5.864000000
H    -3.980000000    -0.172000000    -5.314000000
H    -5.454000000    -0.508000000    -5.380000000
O     2.270000000    -4.100000000    -1.085000000
H     2.089000000    -3.434000000    -1.749000000
H     3.017000000    -4.587000000    -1.431000000
O     3.629000000     2.817000000     3.327000000
H     2.917000000     3.094000000     3.903000000
H     3.582000000     1.861000000     3.331000000
O     5.812000000    -2.197000000    -0.971000000
H     6.333000000    -1.655000000    -1.564000000
H     5.008000000    -1.696000000    -0.835000000
O     1.821000000     3.328000000    -3.394000000
H     1.244000000     3.458000000    -2.641000000
H     1.256000000     2.946000000    -4.066000000
O    -4.731000000     0.772000000    -1.629000000
H    -4.545000000     0.974000000    -0.712000000
H    -3.887000000     0.506000000    -1.992000000
O     3.006000000     3.840000000     0.524000000
H     3.229000000     2.910000000     0.482000000
H     3.492000000     4.169000000     1.280000000
O    -2.303000000    -7.146000000     3.027000000
H    -2.423000000    -6.675000000     2.202000000
H    -1.886000000    -7.970000000     2.773000000
O    -2.290000000    -6.680000000    -2.317000000
H    -2.953000000    -7.251000000    -2.705000000
H    -1.468000000    -6.958000000    -2.720000000
O    -2.474000000    -3.506000000     3.677000000
H    -2.301000000    -3.586000000     2.739000000
H    -2.634000000    -4.404000000     3.968000000
O     2.836000000    -2.945000000     4.510000000
H     2.413000000    -3.188000000     3.686000000
H     3.111000000    -3.778000000     4.894000000
O     1.232000000     5.691000000    -0.882000000
H     1.633000000     5.269000000    -0.122000000
H     0.651000000     5.023000000    -1.248000000
