158
-3030.26486
C    -0.206000000     0.708000000    -1.279000000
H    -0.528000000     0.995000000    -2.277000000
C    -0.572000000    -0.630000000    -1.019000000
H    -1.176000000    -1.247000000    -1.679000000
C    -0.349000000    -1.171000000     0.262000000
H    -0.593000000    -2.224000000     0.514000000
C     0.278000000    -0.339000000     1.294000000
H     0.359000000    -0.737000000     2.302000000
C     0.671000000     1.019000000     0.969000000
H     1.236000000     1.623000000     1.674000000
C     0.415000000     1.483000000    -0.310000000
C     0.760000000     2.905000000    -0.658000000
O     1.370000000     3.547000000     0.194000000
O     0.755000000     3.320000000    -1.826000000
O    -3.291000000    -3.269000000    -2.957000000
H    -2.597000000    -3.703000000    -3.454000000
H    -3.438000000    -2.445000000    -3.422000000
O    -3.427000000     2.862000000    -4.937000000
H    -4.065000000     3.565000000    -5.054000000
H    -2.836000000     3.185000000    -4.257000000
O     3.191000000     1.072000000    -6.041000000
H     3.745000000     1.851000000    -6.101000000
H     2.698000000     1.191000000    -5.230000000
O    -0.898000000    -5.610000000     1.520000000
H    -1.164000000    -5.221000000     0.687000000
H     0.031000000    -5.811000000     1.405000000
O     0.722000000     8.815000000     0.156000000
H     0.085000000     9.347000000    -0.320000000
H     0.515000000     7.914000000    -0.092000000
O    -5.484000000    -1.674000000     3.390000000
H    -5.729000000    -1.387000000     4.269000000
H    -5.402000000    -2.625000000     3.463000000
O    -1.806000000    -6.547000000     3.979000000
H    -1.727000000    -6.283000000     3.062000000
H    -1.076000000    -6.110000000     4.417000000
O     1.750000000    -5.880000000     1.216000000
H     2.325000000    -5.488000000     1.874000000
H     2.213000000    -5.756000000     0.388000000
O     1.549000000    -3.022000000    -1.452000000
H     2.272000000    -3.044000000    -0.825000000
H     0.869000000    -2.510000000    -1.015000000
O     0.348000000    -0.717000000    -4.662000000
H    -0.268000000    -0.913000000    -5.368000000
H     0.294000000     0.232000000    -4.554000000
O    -1.652000000    -6.996000000    -2.283000000
H    -0.941000000    -6.424000000    -1.995000000
H    -1.513000000    -7.094000000    -3.225000000
O    -0.366000000     4.441000000     4.429000000
H    -0.473000000     4.162000000     3.520000000
H    -1.001000000     3.917000000     4.917000000
O    -3.603000000     0.273000000     3.391000000
H    -4.120000000    -0.533000000     3.385000000
H    -3.906000000     0.757000000     2.623000000
O    -3.592000000    -1.015000000    -0.002000000
H    -3.416000000    -1.861000000     0.409000000
H    -2.999000000    -0.407000000     0.440000000
O     3.924000000     3.400000000     0.520000000
H     3.018000000     3.239000000     0.258000000
H     4.052000000     2.849000000     1.292000000
O    -2.121000000    -1.011000000     5.558000000
H    -2.767000000    -0.615000000     4.973000000
H    -2.269000000    -1.953000000     5.476000000
O    -2.843000000    -0.541000000    -4.964000000
H    -3.553000000    -0.306000000    -4.367000000
H    -3.266000000    -1.057000000    -5.650000000
O    -5.920000000    -1.358000000     0.843000000
H    -5.077000000    -1.121000000     0.456000000
H    -5.733000000    -1.467000000     1.775000000
O     3.400000000    -4.878000000     3.427000000
H     3.050000000    -4.091000000     3.845000000
H     4.347000000    -4.739000000     3.410000000
O     1.372000000     5.847000000    -6.191000000
H     0.784000000     6.309000000    -6.788000000
H     0.874000000     5.078000000    -5.913000000
O     0.320000000     6.307000000    -0.792000000
H     0.085000000     6.568000000    -1.682000000
H     0.004000000     5.406000000    -0.716000000
O    -3.567000000     3.330000000    -0.358000000
H    -2.808000000     3.443000000     0.215000000
H    -3.891000000     4.219000000    -0.503000000
O    -0.663000000     4.200000000    -3.966000000
H    -0.562000000     5.126000000    -3.746000000
H    -0.315000000     3.733000000    -3.207000000
O    -5.260000000     2.657000000    -2.375000000
H    -5.110000000     1.843000000    -2.855000000
H    -4.585000000     2.663000000    -1.696000000
O     2.759000000    -0.065000000    -1.472000000
H     2.483000000     0.180000000    -2.355000000
H     1.967000000    -0.414000000    -1.062000000
O     3.272000000    -2.815000000     0.814000000
H     4.035000000    -3.393000000     0.833000000
H     2.983000000    -2.770000000     1.725000000
O     4.269000000    -0.145000000     0.705000000
H     3.723000000     0.192000000    -0.005000000
H     3.946000000    -1.034000000     0.853000000
O    -2.848000000    -3.245000000     1.407000000
H    -3.015000000    -4.116000000     1.046000000
H    -2.861000000    -3.373000000     2.355000000
O    -0.163000000     3.446000000    -6.708000000
H    -0.369000000     3.729000000    -5.817000000
H    -0.610000000     2.604000000    -6.801000000
O     5.688000000     5.151000000    -0.663000000
H     5.098000000     4.524000000    -0.245000000
H     5.862000000     4.778000000    -1.527000000
O    -0.971000000     3.211000000     2.098000000
H    -0.222000000     3.222000000     1.503000000
H    -0.912000000     2.367000000     2.544000000
O    -0.300000000     7.112000000    -3.963000000
H     0.399000000     7.765000000    -4.011000000
H    -1.074000000     7.608000000    -3.698000000
O     2.287000000     0.585000000     4.233000000
H     2.697000000     1.437000000     4.084000000
H     1.362000000     0.785000000     4.374000000
O     2.310000000    -2.193000000     3.531000000
H     2.267000000    -1.326000000     3.933000000
H     1.512000000    -2.633000000     3.823000000
O     0.572000000    -5.328000000     4.618000000
H     0.824000000    -5.732000000     5.448000000
H     1.284000000    -5.549000000     4.017000000
O    -1.077000000    -4.640000000    -4.215000000
H    -0.343000000    -4.543000000    -4.821000000
H    -0.667000000    -4.750000000    -3.357000000
O     0.408000000    -5.210000000    -1.975000000
H     1.053000000    -5.910000000    -2.078000000
H     0.888000000    -4.504000000    -1.544000000
O     4.864000000    -0.427000000     4.574000000
H     4.184000000    -0.315000000     3.909000000
H     4.800000000    -1.347000000     4.830000000
O     2.579000000     5.365000000    -1.819000000
H     2.641000000     5.914000000    -1.038000000
H     2.115000000     4.581000000    -1.524000000
O    -4.532000000    -0.143000000    -2.785000000
H    -5.442000000    -0.398000000    -2.633000000
H    -4.087000000    -0.337000000    -1.960000000
O     4.103000000     2.637000000     3.159000000
H     4.900000000     2.131000000     3.318000000
H     4.019000000     3.200000000     3.929000000
O    -2.953000000    -5.008000000    -0.781000000
H    -2.740000000    -5.849000000    -1.184000000
H    -3.133000000    -4.426000000    -1.519000000
O    -0.387000000     0.992000000     4.502000000
H    -0.632000000     0.119000000     4.810000000
H    -1.016000000     1.579000000     4.922000000
O     3.399000000     6.371000000    -4.321000000
H     2.693000000     6.162000000    -4.932000000
H     3.145000000     5.940000000    -3.505000000
O    -2.176000000    -3.535000000     4.517000000
H    -2.833000000    -4.218000000     4.654000000
H    -1.340000000    -4.000000000     4.532000000
O     2.067000000    -2.856000000    -4.192000000
H     1.773000000    -3.141000000    -3.327000000
H     1.642000000    -2.008000000    -4.322000000
O     2.404000000     1.873000000    -3.572000000
H     1.955000000     2.533000000    -3.044000000
H     3.315000000     1.913000000    -3.281000000
O     2.679000000     5.808000000     1.503000000
H     2.013000000     5.203000000     1.177000000
H     3.511000000     5.380000000     1.302000000
