158
-3020.43505
C     0.702000000     1.002000000    -0.824000000
H     1.255000000     1.705000000    -1.442000000
C     0.056000000    -0.112000000    -1.276000000
H     0.086000000    -0.304000000    -2.346000000
C    -0.602000000    -1.001000000    -0.384000000
H    -1.164000000    -1.883000000    -0.714000000
C    -0.690000000    -0.695000000     0.969000000
H    -1.249000000    -1.329000000     1.653000000
C    -0.018000000     0.450000000     1.443000000
H    -0.022000000     0.607000000     2.518000000
C     0.739000000     1.232000000     0.534000000
C     1.400000000     2.425000000     1.152000000
O     1.501000000     2.471000000     2.389000000
O     1.913000000     3.237000000     0.378000000
O     6.897000000     4.282000000     1.139000000
H     6.021000000     4.652000000     1.032000000
H     6.995000000     4.167000000     2.084000000
O     4.775000000     4.536000000     3.633000000
H     5.376000000     3.817000000     3.828000000
H     4.396000000     4.768000000     4.481000000
O    -4.576000000    -1.142000000    -2.006000000
H    -5.287000000    -1.480000000    -2.550000000
H    -4.752000000    -1.498000000    -1.135000000
O    -1.804000000     2.013000000    -3.625000000
H    -1.557000000     2.755000000    -3.072000000
H    -2.664000000     1.748000000    -3.300000000
O    -0.419000000    -5.127000000     4.477000000
H     0.478000000    -4.883000000     4.707000000
H    -0.438000000    -5.097000000     3.521000000
O     1.244000000    -4.624000000    -1.030000000
H     2.100000000    -5.037000000    -0.912000000
H     1.206000000    -4.415000000    -1.963000000
O    -1.305000000    -2.501000000     5.289000000
H    -0.857000000    -3.245000000     4.886000000
H    -0.788000000    -2.306000000     6.071000000
O    -2.703000000     1.129000000    -0.082000000
H    -1.802000000     0.981000000    -0.369000000
H    -3.178000000     0.350000000    -0.370000000
O     0.362000000    -6.414000000     1.873000000
H     1.301000000    -6.426000000     1.691000000
H    -0.009000000    -5.865000000     1.181000000
O     2.579000000    -1.727000000    -3.014000000
H     2.706000000    -1.977000000    -2.098000000
H     1.887000000    -2.309000000    -3.327000000
O     2.503000000     0.256000000    -5.203000000
H     2.069000000    -0.365000000    -5.788000000
H     2.844000000    -0.286000000    -4.490000000
O     1.733000000    -4.642000000    -3.854000000
H     1.583000000    -5.583000000    -3.756000000
H     1.372000000    -4.431000000    -4.715000000
O     4.169000000     4.863000000     0.989000000
H     4.336000000     4.702000000     1.917000000
H     3.378000000     4.359000000     0.797000000
O    -0.318000000     1.371000000    -6.091000000
H    -0.618000000     1.557000000    -5.202000000
H     0.604000000     1.627000000    -6.092000000
O    -4.617000000    -1.475000000     0.997000000
H    -4.433000000    -2.397000000     1.179000000
H    -4.040000000    -0.994000000     1.590000000
O     1.849000000    -2.988000000     4.011000000
H     2.390000000    -2.200000000     4.058000000
H     1.457000000    -2.958000000     3.138000000
O     0.984000000     7.994000000     1.719000000
H     1.822000000     8.142000000     1.282000000
H     0.835000000     7.052000000     1.638000000
O    -1.632000000     4.851000000    -2.350000000
H    -2.491000000     5.051000000    -2.723000000
H    -1.123000000     5.652000000    -2.479000000
O     5.969000000     1.480000000    -0.993000000
H     6.555000000     1.901000000    -1.623000000
H     5.100000000     1.816000000    -1.213000000
O     1.066000000    -3.181000000     1.475000000
H     0.682000000    -2.342000000     1.218000000
H     1.335000000    -3.584000000     0.650000000
O     3.478000000    -1.995000000    -0.447000000
H     4.234000000    -2.388000000    -0.011000000
H     3.145000000    -1.355000000     0.182000000
O    -3.843000000    -0.449000000     3.434000000
H    -4.108000000     0.443000000     3.656000000
H    -3.411000000    -0.775000000     4.224000000
O     4.417000000    -1.155000000     3.387000000
H     4.793000000    -1.120000000     4.267000000
H     4.165000000    -0.250000000     3.199000000
O     0.946000000     5.306000000    -4.105000000
H     1.001000000     4.387000000    -3.842000000
H     1.087000000     5.796000000    -3.295000000
O     2.919000000     5.165000000     5.580000000
H     2.202000000     5.577000000     6.061000000
H     3.155000000     4.402000000     6.109000000
O     5.424000000     4.529000000    -2.110000000
H     4.804000000     3.850000000    -1.842000000
H     6.220000000     4.049000000    -2.340000000
O     0.210000000     2.855000000     4.653000000
H     0.764000000     2.820000000     3.874000000
H    -0.358000000     3.611000000     4.510000000
O     0.281000000     5.026000000     7.030000000
H    -0.534000000     5.389000000     6.686000000
H     0.361000000     4.172000000     6.604000000
O     4.874000000     7.335000000    -0.883000000
H     5.001000000     6.418000000    -1.127000000
H     5.742000000     7.634000000    -0.613000000
O    -1.157000000     1.829000000     6.658000000
H    -0.864000000     2.024000000     5.768000000
H    -1.877000000     1.209000000     6.543000000
O     5.158000000    -2.455000000    -3.598000000
H     4.390000000    -2.067000000    -3.179000000
H     4.802000000    -2.958000000    -4.330000000
O     0.460000000    -1.197000000    -6.420000000
H     0.383000000    -1.069000000    -7.365000000
H    -0.174000000    -0.587000000    -6.043000000
O    -1.271000000    -5.071000000     0.222000000
H    -0.610000000    -4.628000000    -0.311000000
H    -1.601000000    -5.772000000    -0.340000000
O     1.813000000     0.558000000     5.482000000
H     2.224000000     0.699000000     4.628000000
H     1.386000000     1.391000000     5.682000000
O    -6.121000000     1.073000000    -0.054000000
H    -6.029000000     1.775000000     0.590000000
H    -5.603000000     0.351000000     0.303000000
O     1.519000000     5.638000000    -1.450000000
H     2.413000000     5.898000000    -1.228000000
H     1.203000000     5.178000000    -0.673000000
O    -4.342000000     1.489000000    -3.093000000
H    -4.621000000     0.596000000    -2.892000000
H    -4.772000000     1.693000000    -3.924000000
O     3.018000000     7.504000000     4.139000000
H     2.912000000     6.615000000     4.479000000
H     2.240000000     7.648000000     3.600000000
O    -2.678000000     4.032000000     0.405000000
H    -2.916000000     3.107000000     0.462000000
H    -1.821000000     4.033000000    -0.022000000
O     3.847000000     1.833000000     3.450000000
H     4.350000000     2.527000000     3.024000000
H     2.938000000     2.017000000     3.216000000
O    -3.452000000    -3.847000000     1.766000000
H    -3.663000000    -4.705000000     2.135000000
H    -2.743000000    -4.021000000     1.147000000
O    -3.455000000    -1.735000000    -5.866000000
H    -2.784000000    -2.344000000    -6.172000000
H    -3.611000000    -1.987000000    -4.956000000
O    -0.851000000     5.579000000     4.213000000
H    -1.265000000     6.342000000     3.810000000
H    -1.545000000     5.177000000     4.736000000
O     1.226000000    -1.249000000     7.296000000
H     1.136000000    -0.829000000     6.441000000
H     0.977000000    -0.570000000     7.924000000
O     1.471000000     2.606000000    -3.960000000
H     1.823000000     3.068000000    -4.721000000
H     1.785000000     1.707000000    -4.059000000
O    -3.983000000    -3.751000000     4.714000000
H    -3.272000000    -3.150000000     4.932000000
H    -4.040000000    -3.718000000     3.759000000
O     3.346000000     2.854000000    -1.907000000
H     2.807000000     3.245000000    -1.219000000
H     2.740000000     2.713000000    -2.635000000
O     0.670000000     5.218000000     1.892000000
H     0.318000000     5.035000000     2.763000000
H     1.020000000     4.379000000     1.594000000
