158
-3030.16937
C     1.318000000    -0.012000000    -0.706000000
H     2.273000000    -0.131000000    -1.212000000
C     0.230000000    -0.838000000    -1.021000000
H     0.221000000    -1.560000000    -1.834000000
C    -0.937000000    -0.737000000    -0.259000000
H    -1.776000000    -1.455000000    -0.457000000
C    -1.033000000     0.128000000     0.834000000
H    -1.981000000     0.133000000     1.366000000
C     0.006000000     1.063000000     0.977000000
H    -0.133000000     1.803000000     1.761000000
C     1.132000000     1.017000000     0.203000000
C     2.229000000     1.964000000     0.639000000
O     2.172000000     2.564000000     1.748000000
O     3.250000000     2.128000000    -0.066000000
O     7.444000000     4.612000000     0.904000000
H     6.508000000     4.415000000     0.933000000
H     7.782000000     4.293000000     1.740000000
O     5.730000000     3.598000000     3.798000000
H     6.395000000     2.916000000     3.898000000
H     5.701000000     4.030000000     4.652000000
O    -3.696000000    -5.183000000    -1.865000000
H    -3.823000000    -5.945000000    -1.299000000
H    -2.818000000    -5.300000000    -2.230000000
O    -0.518000000     3.679000000    -2.291000000
H    -0.386000000     3.879000000    -1.365000000
H     0.329000000     3.346000000    -2.588000000
O     5.058000000    -1.833000000     1.646000000
H     5.790000000    -2.148000000     1.116000000
H     5.048000000    -0.887000000     1.503000000
O     0.370000000    -2.732000000     2.423000000
H     0.948000000    -3.285000000     1.898000000
H     0.100000000    -2.033000000     1.826000000
O    -3.522000000     1.161000000    -1.302000000
H    -3.544000000     1.854000000    -0.641000000
H    -4.019000000     0.442000000    -0.912000000
O    -6.922000000     1.257000000     1.464000000
H    -6.395000000     0.796000000     0.811000000
H    -6.350000000     1.953000000     1.786000000
O     5.935000000    -1.794000000    -3.014000000
H     5.546000000    -2.137000000    -3.818000000
H     5.456000000    -2.233000000    -2.311000000
O     1.964000000    -4.184000000     0.556000000
H     1.245000000    -4.465000000    -0.011000000
H     2.490000000    -4.973000000     0.685000000
O    -3.508000000     0.682000000    -5.617000000
H    -2.716000000     0.147000000    -5.671000000
H    -3.286000000     1.377000000    -4.998000000
O     4.387000000     4.240000000     1.595000000
H     3.774000000     3.523000000     1.435000000
H     4.934000000     3.931000000     2.317000000
O    -0.715000000     4.381000000     0.591000000
H    -0.459000000     4.166000000     1.488000000
H    -1.665000000     4.260000000     0.578000000
O    -7.037000000    -3.129000000     0.884000000
H    -7.205000000    -2.839000000     1.781000000
H    -7.160000000    -2.344000000     0.351000000
O     2.490000000    -4.289000000    -2.911000000
H     1.779000000    -4.744000000    -2.460000000
H     2.779000000    -3.621000000    -2.289000000
O     1.991000000     2.357000000    -2.593000000
H     2.196000000     2.221000000    -3.518000000
H     2.746000000     2.000000000    -2.125000000
O    -1.984000000    -4.979000000     3.602000000
H    -1.243000000    -4.466000000     3.925000000
H    -2.602000000    -4.325000000     3.273000000
O    -1.520000000     1.146000000     5.153000000
H    -0.712000000     0.634000000     5.106000000
H    -1.844000000     1.165000000     4.252000000
O    -0.461000000    -0.156000000    -6.487000000
H    -0.089000000    -0.608000000    -7.244000000
H    -0.273000000    -0.734000000    -5.747000000
O     0.450000000     6.700000000     0.392000000
H    -0.154000000     5.957000000     0.408000000
H     1.141000000     6.433000000    -0.214000000
O    -7.188000000    -1.697000000    -1.588000000
H    -7.192000000    -2.199000000    -2.402000000
H    -7.468000000    -0.819000000    -1.846000000
O    -3.072000000     2.644000000    -3.546000000
H    -3.296000000     2.143000000    -2.762000000
H    -2.494000000     3.339000000    -3.230000000
O     4.546000000    -3.325000000    -1.225000000
H     5.070000000    -4.102000000    -1.419000000
H     3.981000000    -3.591000000    -0.500000000
O    -3.563000000     3.517000000     0.366000000
H    -4.016000000     3.696000000     1.190000000
H    -4.233000000     3.635000000    -0.307000000
O     4.030000000     1.677000000    -4.469000000
H     4.251000000     1.614000000    -3.539000000
H     4.472000000     2.472000000    -4.767000000
O    -3.857000000    -3.229000000     0.249000000
H    -4.247000000    -3.391000000    -0.610000000
H    -3.087000000    -3.797000000     0.273000000
O     2.044000000     4.037000000     5.954000000
H     2.459000000     4.682000000     6.527000000
H     2.624000000     3.276000000     5.989000000
O    -1.961000000     5.661000000     3.569000000
H    -1.100000000     5.389000000     3.249000000
H    -1.857000000     5.715000000     4.519000000
O     2.710000000     5.046000000    -1.348000000
H     2.428000000     4.235000000    -1.772000000
H     2.970000000     4.778000000    -0.467000000
O     2.559000000    -0.325000000    -5.545000000
H     3.241000000    -0.991000000    -5.462000000
H     2.996000000     0.496000000    -5.319000000
O     0.580000000    -4.587000000    -5.987000000
H     0.883000000    -4.054000000    -5.252000000
H    -0.373000000    -4.497000000    -5.972000000
O     1.197000000     0.445000000     4.816000000
H     1.793000000     0.690000000     4.107000000
H     1.608000000     0.796000000     5.606000000
O    -4.334000000    -3.424000000     3.033000000
H    -5.278000000    -3.347000000     3.174000000
H    -4.228000000    -3.359000000     2.084000000
O     5.143000000     2.067000000    -1.769000000
H     4.411000000     2.162000000    -1.159000000
H     5.777000000     1.525000000    -1.299000000
O    -2.648000000    -0.920000000    -3.286000000
H    -1.748000000    -0.975000000    -3.608000000
H    -2.681000000    -0.090000000    -2.810000000
O     3.535000000     1.575000000     3.775000000
H     4.241000000     2.178000000     4.006000000
H     3.369000000     1.744000000     2.848000000
O     0.412000000    -5.383000000    -1.376000000
H     0.558000000    -6.319000000    -1.512000000
H    -0.282000000    -5.156000000    -1.995000000
O    -0.081000000    -1.632000000    -4.134000000
H     0.780000000    -1.309000000    -3.868000000
H    -0.269000000    -2.343000000    -3.522000000
O    -0.764000000     3.738000000     6.413000000
H    -0.903000000     2.960000000     5.873000000
H     0.048000000     4.119000000     6.079000000
O     5.944000000     4.841000000    -2.295000000
H     5.600000000     4.012000000    -1.964000000
H     5.541000000     5.507000000    -1.738000000
O    -5.167000000    -0.739000000    -0.266000000
H    -4.703000000    -1.512000000     0.056000000
H    -5.819000000    -1.087000000    -0.873000000
O     7.454000000     2.156000000    -0.066000000
H     7.576000000     3.041000000     0.278000000
H     8.207000000     2.016000000    -0.641000000
O    -1.742000000    -5.159000000     0.555000000
H    -0.943000000    -5.271000000     0.040000000
H    -1.612000000    -5.716000000     1.323000000
O     5.272000000     0.800000000     1.086000000
H     4.559000000     1.307000000     0.698000000
H     6.055000000     1.329000000     0.929000000
O    -5.545000000    -4.451000000    -3.540000000
H    -5.000000000    -4.668000000    -2.784000000
H    -5.283000000    -5.080000000    -4.212000000
O    -5.456000000    -1.641000000    -3.865000000
H    -4.546000000    -1.359000000    -3.779000000
H    -5.400000000    -2.581000000    -4.037000000
O    -1.301000000    -5.118000000    -3.519000000
H    -1.597000000    -4.604000000    -4.270000000
H    -1.273000000    -6.019000000    -3.840000000
O     0.673000000     4.323000000     3.100000000
H     1.230000000     3.695000000     2.641000000
H     0.971000000     4.289000000     4.009000000
