158
-3025.83203
C     1.238000000     0.224000000    -0.796000000
H     2.074000000     0.372000000    -1.475000000
C     0.177000000    -0.608000000    -1.165000000
H     0.233000000    -1.180000000    -2.088000000
C    -0.939000000    -0.720000000    -0.344000000
H    -1.845000000    -1.380000000    -0.608000000
C    -0.864000000    -0.100000000     0.897000000
H    -1.714000000    -0.139000000     1.574000000
C     0.191000000     0.685000000     1.271000000
H     0.245000000     1.175000000     2.241000000
C     1.179000000     0.938000000     0.393000000
C     2.270000000     1.936000000     0.672000000
O     2.216000000     2.571000000     1.692000000
O     3.152000000     2.234000000    -0.090000000
O     4.886000000     4.399000000     0.563000000
H     4.258000000     3.701000000     0.751000000
H     5.497000000     4.375000000     1.299000000
O    -1.234000000    -6.519000000    -0.599000000
H    -0.772000000    -7.353000000    -0.682000000
H    -1.155000000    -6.114000000    -1.463000000
O     6.364000000     3.583000000    -3.704000000
H     6.576000000     2.748000000    -4.122000000
H     6.376000000     3.392000000    -2.766000000
O    -5.530000000    -0.631000000     1.440000000
H    -4.916000000     0.037000000     1.134000000
H    -5.274000000    -1.424000000     0.968000000
O     4.345000000    -1.765000000    -4.023000000
H     3.505000000    -1.957000000    -4.439000000
H     4.275000000    -0.851000000    -3.750000000
O     1.531000000    -2.188000000     1.674000000
H     1.234000000    -3.092000000     1.567000000
H     1.045000000    -1.697000000     1.011000000
O     2.435000000     3.215000000     6.006000000
H     1.811000000     3.640000000     5.417000000
H     3.084000000     2.820000000     5.424000000
O    -1.725000000     2.272000000    -1.486000000
H    -1.090000000     1.571000000    -1.635000000
H    -1.275000000     3.068000000    -1.770000000
O     7.145000000     2.552000000    -1.039000000
H     6.792000000     3.341000000    -0.626000000
H     6.521000000     1.863000000    -0.810000000
O     1.730000000     0.249000000    -6.159000000
H     2.449000000     0.223000000    -6.791000000
H     1.604000000    -0.664000000    -5.902000000
O     0.705000000     0.198000000     7.136000000
H     0.658000000     0.878000000     7.807000000
H     0.196000000     0.548000000     6.405000000
O     1.990000000    -2.303000000    -5.355000000
H     1.193000000    -2.736000000    -5.047000000
H     2.586000000    -3.021000000    -5.566000000
O    -2.720000000    -4.170000000     0.350000000
H    -1.898000000    -4.460000000    -0.046000000
H    -3.043000000    -4.938000000     0.821000000
O    -3.288000000     3.101000000     4.877000000
H    -4.048000000     3.636000000     5.108000000
H    -3.662000000     2.299000000     4.513000000
O     2.664000000     4.457000000    -1.362000000
H     2.591000000     3.527000000    -1.149000000
H     3.473000000     4.738000000    -0.934000000
O     4.033000000     0.833000000    -3.764000000
H     3.464000000     1.411000000    -4.273000000
H     4.884000000     0.891000000    -4.199000000
O     0.345000000     3.808000000    -2.636000000
H     1.133000000     4.240000000    -2.304000000
H     0.675000000     3.117000000    -3.210000000
O    -2.856000000    -0.880000000     5.495000000
H    -2.307000000    -1.076000000     4.735000000
H    -2.416000000    -0.147000000     5.926000000
O    -0.810000000     1.436000000    -5.770000000
H    -0.986000000     1.417000000    -6.711000000
H     0.067000000     1.061000000    -5.683000000
O     5.538000000    -0.789000000     1.097000000
H     5.353000000    -1.721000000     0.980000000
H     5.290000000    -0.389000000     0.264000000
O    -4.900000000    -6.002000000    -1.041000000
H    -4.647000000    -6.150000000    -0.130000000
H    -5.731000000    -5.531000000    -0.985000000
O    -6.380000000     2.563000000     1.438000000
H    -5.494000000     2.207000000     1.382000000
H    -6.255000000     3.511000000     1.486000000
O    -0.669000000     1.349000000     5.042000000
H    -1.227000000     2.082000000     5.301000000
H    -0.030000000     1.735000000     4.443000000
O    -2.403000000     5.077000000     0.985000000
H    -2.296000000     5.397000000     1.881000000
H    -2.755000000     4.193000000     1.087000000
O     5.684000000     1.054000000     2.935000000
H     5.596000000     0.453000000     3.675000000
H     5.528000000     0.509000000     2.164000000
O    -3.194000000    -3.128000000     3.248000000
H    -2.336000000    -2.705000000     3.257000000
H    -3.564000000    -2.900000000     2.395000000
O    -3.106000000    -0.236000000    -6.021000000
H    -3.372000000    -0.965000000    -5.460000000
H    -2.315000000     0.109000000    -5.607000000
O     2.247000000     5.181000000     1.497000000
H     1.441000000     5.406000000     1.032000000
H     2.305000000     4.228000000     1.428000000
O    -5.232000000    -1.963000000    -4.633000000
H    -6.002000000    -2.520000000    -4.519000000
H    -4.511000000    -2.578000000    -4.770000000
O     0.859000000     3.515000000     3.753000000
H     1.114000000     3.130000000     2.915000000
H    -0.042000000     3.806000000     3.619000000
O    -5.138000000     1.170000000     3.781000000
H    -5.838000000     1.212000000     4.433000000
H    -5.479000000     0.590000000     3.101000000
O    -5.119000000    -2.982000000    -0.098000000
H    -5.863000000    -3.585000000    -0.112000000
H    -4.353000000    -3.550000000    -0.020000000
O    -1.615000000    -0.139000000    -3.581000000
H    -1.752000000     0.718000000    -3.984000000
H    -2.199000000    -0.142000000    -2.822000000
O     0.599000000    -4.936000000     1.264000000
H     0.053000000    -5.439000000     0.660000000
H     1.487000000    -5.032000000     0.922000000
O     3.959000000     3.077000000     3.647000000
H     4.599000000     2.401000000     3.421000000
H     3.258000000     2.966000000     3.005000000
O    -0.302000000    -5.450000000    -3.611000000
H    -1.226000000    -5.567000000    -3.830000000
H    -0.155000000    -4.507000000    -3.687000000
O    -3.123000000    -3.503000000    -4.984000000
H    -3.259000000    -4.319000000    -4.502000000
H    -3.332000000    -3.723000000    -5.892000000
O    -3.664000000     2.119000000     0.325000000
H    -3.858000000     2.659000000    -0.441000000
H    -2.794000000     1.761000000     0.151000000
O    -0.276000000    -2.527000000     3.802000000
H     0.290000000    -2.295000000     3.065000000
H    -0.197000000    -3.478000000     3.873000000
O    -3.432000000    -5.845000000    -3.204000000
H    -3.769000000    -6.441000000    -3.873000000
H    -4.050000000    -5.926000000    -2.478000000
O     4.517000000     7.252000000     1.238000000
H     4.239000000     6.339000000     1.162000000
H     3.707000000     7.737000000     1.390000000
O     4.917000000     0.847000000    -1.105000000
H     4.321000000     1.385000000    -0.583000000
H     4.523000000     0.831000000    -1.977000000
O    -4.103000000    -0.870000000    -1.959000000
H    -4.390000000    -1.575000000    -1.379000000
H    -4.647000000    -0.966000000    -2.741000000
O    -5.446000000     1.417000000    -2.261000000
H    -5.186000000     2.262000000    -1.895000000
H    -4.725000000     0.828000000    -2.037000000
O    -4.652000000    -5.876000000     1.654000000
H    -4.974000000    -5.517000000     2.480000000
H    -4.423000000    -6.783000000     1.859000000
O    -0.874000000    -2.662000000    -4.249000000
H    -1.796000000    -2.845000000    -4.434000000
H    -0.844000000    -1.718000000    -4.093000000
O     3.680000000    -1.913000000     3.433000000
H     4.087000000    -1.139000000     3.045000000
H     2.810000000    -1.951000000     3.035000000
O     3.538000000     5.977000000     4.033000000
H     3.022000000     6.268000000     3.281000000
H     3.540000000     5.022000000     3.967000000
