158
-3030.73012
C     1.189000000    -0.646000000    -0.591000000
H     1.965000000    -1.292000000    -0.993000000
C    -0.057000000    -1.247000000    -0.315000000
H    -0.335000000    -2.261000000    -0.593000000
C    -1.078000000    -0.544000000     0.280000000
H    -2.050000000    -0.860000000     0.444000000
C    -0.882000000     0.796000000     0.602000000
H    -1.644000000     1.369000000     1.123000000
C     0.355000000     1.391000000     0.373000000
H     0.518000000     2.459000000     0.500000000
C     1.401000000     0.690000000    -0.270000000
C     2.811000000     1.277000000    -0.573000000
O     3.269000000     2.171000000     0.176000000
O     3.591000000     0.765000000    -1.369000000
O     8.265000000     0.114000000     1.376000000
H     9.049000000    -0.228000000     0.945000000
H     7.643000000     0.258000000     0.662000000
O    -0.616000000    -6.155000000    -2.123000000
H     0.120000000    -5.986000000    -1.536000000
H    -0.522000000    -7.077000000    -2.366000000
O    -4.741000000    -0.119000000     0.969000000
H    -4.645000000     0.123000000     0.048000000
H    -4.582000000    -1.063000000     0.986000000
O     2.189000000    -3.216000000    -3.093000000
H     1.277000000    -3.271000000    -3.378000000
H     2.397000000    -2.282000000    -3.132000000
O     0.140000000    -4.041000000     2.255000000
H    -0.155000000    -4.925000000     2.472000000
H     0.555000000    -4.131000000     1.397000000
O     0.911000000    -1.397000000     2.815000000
H     0.610000000    -2.212000000     2.413000000
H     0.556000000    -0.708000000     2.253000000
O    -1.680000000     3.359000000    -2.854000000
H    -1.584000000     3.996000000    -2.145000000
H    -0.907000000     2.800000000    -2.780000000
O     6.479000000     4.817000000    -3.468000000
H     7.317000000     4.782000000    -3.005000000
H     6.005000000     4.044000000    -3.162000000
O     5.460000000    -0.027000000    -5.891000000
H     5.611000000    -0.617000000    -5.152000000
H     4.917000000    -0.534000000    -6.494000000
O    -0.383000000    -2.898000000    -4.228000000
H    -1.270000000    -3.255000000    -4.275000000
H    -0.440000000    -2.055000000    -4.678000000
O    -2.535000000    -4.081000000    -1.490000000
H    -1.814000000    -4.701000000    -1.603000000
H    -3.036000000    -4.429000000    -0.752000000
O    -1.672000000     3.196000000     3.036000000
H    -1.971000000     3.756000000     3.752000000
H    -2.379000000     2.561000000     2.917000000
O     4.546000000     2.706000000    -2.697000000
H     4.342000000     1.961000000    -2.132000000
H     4.079000000     2.524000000    -3.512000000
O    -0.103000000     5.473000000    -0.747000000
H    -0.961000000     5.327000000    -0.347000000
H     0.521000000     5.308000000    -0.040000000
O    -7.436000000    -1.826000000    -0.301000000
H    -6.494000000    -1.680000000    -0.209000000
H    -7.599000000    -1.751000000    -1.241000000
O     3.228000000     2.166000000    -5.089000000
H     2.529000000     2.180000000    -5.743000000
H     4.011000000     1.920000000    -5.581000000
O     1.603000000     3.843000000    -3.502000000
H     0.981000000     3.116000000    -3.523000000
H     2.324000000     3.560000000    -4.064000000
O    -2.308000000    -0.355000000     3.958000000
H    -1.700000000     0.091000000     4.547000000
H    -2.804000000     0.353000000     3.546000000
O     3.297000000    -5.767000000    -2.926000000
H     3.341000000    -6.320000000    -3.706000000
H     2.847000000    -4.974000000    -3.219000000
O    -6.239000000    -4.524000000    -1.492000000
H    -6.770000000    -3.931000000    -0.961000000
H    -6.876000000    -5.072000000    -1.949000000
O     6.032000000     0.378000000    -0.233000000
H     6.372000000    -0.377000000    -0.714000000
H     5.118000000     0.445000000    -0.509000000
O    -5.996000000     3.090000000    -0.330000000
H    -5.461000000     2.301000000    -0.416000000
H    -5.784000000     3.609000000    -1.105000000
O     0.957000000     4.367000000     3.371000000
H     0.403000000     3.617000000     3.158000000
H     1.358000000     4.614000000     2.538000000
O     5.260000000    -2.871000000    -4.541000000
H     4.315000000    -2.726000000    -4.494000000
H     5.421000000    -3.103000000    -5.456000000
O    -2.375000000     4.392000000     0.227000000
H    -2.395000000     4.157000000     1.154000000
H    -2.801000000     5.249000000     0.188000000
O     7.375000000     2.496000000     2.746000000
H     6.468000000     2.236000000     2.585000000
H     7.898000000     1.800000000     2.348000000
O    -1.966000000    -2.979000000     3.620000000
H    -1.131000000    -3.171000000     3.193000000
H    -1.960000000    -2.030000000     3.743000000
O     6.519000000    -0.928000000    -3.071000000
H     6.152000000    -1.683000000    -3.531000000
H     7.013000000    -1.308000000    -2.344000000
O     3.493000000     5.361000000    -1.904000000
H     2.659000000     5.363000000    -1.434000000
H     3.652000000     4.440000000    -2.106000000
O     4.952000000    -3.838000000     2.513000000
H     4.384000000    -3.068000000     2.534000000
H     5.380000000    -3.842000000     3.369000000
O     2.258000000     4.784000000     0.672000000
H     2.401000000     3.864000000     0.451000000
H     3.138000000     5.141000000     0.795000000
O    -4.059000000     1.672000000     2.908000000
H    -4.820000000     1.620000000     3.486000000
H    -4.348000000     1.263000000     2.093000000
O    -4.867000000    -2.217000000    -0.892000000
H    -5.219000000    -3.094000000    -1.038000000
H    -4.089000000    -2.176000000    -1.448000000
O     0.105000000     1.156000000    -3.519000000
H     0.419000000     0.519000000    -2.877000000
H    -0.399000000     0.636000000    -4.145000000
O     7.637000000     1.495000000    -3.325000000
H     7.051000000     0.754000000    -3.175000000
H     7.934000000     1.386000000    -4.228000000
O     1.661000000    -4.419000000    -0.025000000
H     1.721000000    -5.342000000    -0.271000000
H     2.053000000    -3.949000000    -0.761000000
O    -2.040000000    -5.914000000     2.060000000
H    -2.316000000    -5.028000000     2.292000000
H    -2.732000000    -6.238000000     1.483000000
O     5.052000000     4.085000000     1.136000000
H     5.865000000     3.839000000     0.694000000
H     4.456000000     3.355000000     0.963000000
O    -6.275000000    -0.898000000     3.395000000
H    -5.759000000    -0.272000000     2.887000000
H    -5.661000000    -1.601000000     3.605000000
O    -3.792000000     1.632000000    -1.723000000
H    -3.960000000     1.251000000    -2.585000000
H    -3.055000000     2.227000000    -1.864000000
O    -3.483000000    -3.843000000    -3.907000000
H    -3.974000000    -4.652000000    -4.046000000
H    -3.155000000    -3.913000000    -3.010000000
O     4.910000000     7.067000000    -0.009000000
H     4.502000000     6.488000000    -0.653000000
H     5.565000000     6.519000000     0.424000000
O    -4.818000000    -3.070000000     3.937000000
H    -3.901000000    -2.957000000     3.690000000
H    -4.787000000    -3.365000000     4.847000000
O     2.829000000    -0.615000000    -3.575000000
H     3.197000000    -0.484000000    -2.701000000
H     2.871000000     0.250000000    -3.984000000
O    -4.048000000     0.667000000    -4.267000000
H    -3.303000000     1.057000000    -4.723000000
H    -4.293000000    -0.084000000    -4.808000000
O    -4.313000000    -4.524000000     1.749000000
H    -4.631000000    -4.005000000     2.488000000
H    -5.104000000    -4.894000000     1.358000000
O     3.958000000    -1.189000000     2.630000000
H     4.143000000    -0.695000000     1.831000000
H     3.016000000    -1.353000000     2.598000000
O     4.585000000     5.547000000     3.591000000
H     3.739000000     5.981000000     3.478000000
H     4.769000000     5.156000000     2.737000000
