158
-3038.63299
C     1.338000000    -0.342000000    -0.507000000
H     2.241000000    -0.818000000    -0.881000000
C     0.258000000    -1.253000000    -0.345000000
H     0.417000000    -2.294000000    -0.614000000
C    -0.958000000    -0.783000000     0.127000000
H    -1.745000000    -1.446000000     0.216000000
C    -1.079000000     0.571000000     0.391000000
H    -2.035000000     0.949000000     0.744000000
C     0.008000000     1.474000000     0.200000000
H    -0.198000000     2.523000000     0.399000000
C     1.221000000     1.012000000    -0.266000000
C     2.303000000     1.909000000    -0.652000000
O     2.062000000     3.083000000    -0.737000000
O     3.450000000     1.520000000    -0.603000000
O     3.220000000    -6.347000000     1.756000000
H     2.981000000    -6.152000000     2.662000000
H     2.935000000    -5.578000000     1.262000000
O     7.591000000     0.583000000    -0.732000000
H     7.203000000     0.839000000    -1.569000000
H     8.281000000    -0.037000000    -0.967000000
O     6.165000000     2.216000000    -5.507000000
H     6.082000000     2.011000000    -4.576000000
H     5.288000000     2.075000000    -5.864000000
O     0.817000000    -2.217000000    -3.426000000
H    -0.036000000    -2.606000000    -3.230000000
H     0.779000000    -1.346000000    -3.029000000
O     2.491000000    -3.963000000     0.600000000
H     2.387000000    -4.180000000    -0.326000000
H     3.407000000    -3.699000000     0.683000000
O     0.811000000    -3.848000000     2.622000000
H     1.594000000    -3.881000000     2.072000000
H     0.605000000    -2.916000000     2.691000000
O     3.467000000     4.883000000    -3.331000000
H     3.038000000     5.220000000    -4.118000000
H     3.768000000     4.009000000    -3.579000000
O    -1.124000000     1.237000000     5.909000000
H    -0.467000000     1.920000000     6.041000000
H    -1.822000000     1.670000000     5.417000000
O    -2.456000000     3.497000000     2.590000000
H    -3.203000000     3.426000000     1.996000000
H    -2.675000000     2.917000000     3.319000000
O    -4.031000000    -3.053000000     5.077000000
H    -3.824000000    -3.983000000     4.986000000
H    -4.892000000    -3.039000000     5.495000000
O    -2.031000000    -2.531000000    -3.377000000
H    -2.296000000    -3.432000000    -3.192000000
H    -2.846000000    -2.030000000    -3.339000000
O    -3.135000000    -4.929000000    -2.381000000
H    -3.514000000    -5.067000000    -1.513000000
H    -3.103000000    -5.804000000    -2.770000000
O    -3.367000000     1.511000000     4.281000000
H    -3.255000000     0.586000000     4.062000000
H    -4.278000000     1.581000000     4.565000000
O     3.836000000     2.205000000    -3.316000000
H     3.465000000     2.291000000    -2.437000000
H     3.078000000     2.072000000    -3.884000000
O    -2.001000000     5.836000000     0.209000000
H    -1.327000000     6.395000000     0.596000000
H    -1.523000000     5.266000000    -0.393000000
O     6.336000000     4.300000000     1.131000000
H     6.286000000     3.345000000     1.149000000
H     5.657000000     4.564000000     0.510000000
O    -2.647000000     5.302000000    -3.714000000
H    -1.781000000     5.468000000    -4.085000000
H    -2.471000000     4.969000000    -2.834000000
O    -3.328000000    -1.416000000     2.845000000
H    -3.510000000    -1.835000000     3.687000000
H    -2.558000000    -1.876000000     2.511000000
O     5.851000000     7.252000000    -1.263000000
H     5.484000000     6.375000000    -1.157000000
H     6.280000000     7.436000000    -0.427000000
O     0.416000000     7.167000000     1.126000000
H     0.505000000     7.546000000     2.001000000
H     0.724000000     6.266000000     1.222000000
O     4.775000000    -0.541000000    -1.595000000
H     4.852000000    -0.421000000    -2.542000000
H     4.318000000     0.242000000    -1.291000000
O    -4.779000000     1.644000000     0.008000000
H    -4.049000000     1.677000000    -0.610000000
H    -4.892000000     2.550000000     0.294000000
O    -0.085000000     4.610000000     3.906000000
H    -0.968000000     4.559000000     3.538000000
H     0.495000000     4.474000000     3.157000000
O     2.428000000    -4.449000000    -4.174000000
H     2.362000000    -4.768000000    -5.074000000
H     2.049000000    -3.570000000    -4.203000000
O    -4.487000000     4.560000000     0.779000000
H    -3.557000000     4.730000000     0.631000000
H    -4.921000000     5.382000000     0.549000000
O     6.281000000     2.233000000    -2.296000000
H     6.089000000     2.882000000    -1.620000000
H     5.426000000     1.877000000    -2.538000000
O    -2.045000000    -4.010000000     1.854000000
H    -2.401000000    -4.344000000     2.677000000
H    -1.098000000    -4.117000000     1.942000000
O     4.563000000     4.172000000    -1.084000000
H     4.032000000     4.626000000    -1.739000000
H     3.952000000     3.575000000    -0.652000000
O     5.223000000    -0.326000000    -4.325000000
H     4.819000000    -0.149000000    -5.174000000
H     5.351000000    -1.275000000    -4.313000000
O     4.330000000     3.957000000     3.630000000
H     4.556000000     4.646000000     3.005000000
H     4.068000000     4.427000000     4.422000000
O     3.723000000     6.282000000     1.282000000
H     3.306000000     6.638000000     2.067000000
H     4.161000000     7.033000000     0.882000000
O    -0.100000000     4.617000000    -1.587000000
H    -0.205000000     4.257000000    -2.468000000
H     0.674000000     4.174000000    -1.238000000
O     4.861000000    -2.587000000     0.651000000
H     4.966000000    -2.224000000    -0.228000000
H     4.907000000    -1.827000000     1.231000000
O    -4.314000000    -0.954000000    -2.602000000
H    -5.116000000    -1.067000000    -2.093000000
H    -3.710000000    -0.515000000    -2.003000000
O     1.559000000     4.475000000     1.354000000
H     1.643000000     4.045000000     0.503000000
H     2.355000000     5.001000000     1.436000000
O     2.824000000    -5.635000000    -1.732000000
H     2.844000000    -5.450000000    -2.671000000
H     1.952000000    -6.000000000    -1.578000000
O     0.111000000    -6.308000000    -1.674000000
H     0.157000000    -6.408000000    -2.625000000
H    -0.555000000    -5.634000000    -1.536000000
O     5.587000000     1.438000000     1.018000000
H     4.757000000     1.345000000     0.549000000
H     6.240000000     1.069000000     0.424000000
O    -2.724000000    -5.412000000     4.298000000
H    -2.034000000    -5.876000000     4.772000000
H    -3.268000000    -6.106000000     3.925000000
O    -5.545000000    -0.612000000     1.398000000
H    -4.790000000    -0.770000000     1.966000000
H    -5.273000000     0.111000000     0.833000000
O    -2.586000000     1.225000000    -1.929000000
H    -1.858000000     1.125000000    -1.317000000
H    -2.208000000     1.686000000    -2.678000000
O    -0.304000000    -1.722000000     5.664000000
H    -0.073000000    -1.793000000     4.738000000
H    -0.438000000    -0.786000000     5.807000000
O     1.278000000     7.360000000    -2.500000000
H     0.537000000     6.755000000    -2.468000000
H     1.771000000     7.177000000    -1.700000000
O    -5.282000000    -4.366000000     1.741000000
H    -5.042000000    -3.605000000     2.270000000
H    -4.999000000    -4.141000000     0.855000000
O     1.804000000     1.836000000    -4.878000000
H     2.270000000     2.222000000    -5.619000000
H     0.929000000     1.647000000    -5.217000000
O    -0.963000000     2.437000000    -3.785000000
H    -0.025000000     2.521000000    -3.617000000
H    -1.023000000     2.266000000    -4.725000000
O     0.579000000    -1.025000000     2.832000000
H     0.094000000    -0.351000000     2.356000000
H     1.463000000    -0.668000000     2.920000000
O     2.861000000     1.768000000     2.918000000
H     3.174000000     1.742000000     2.014000000
H     3.486000000     2.334000000     3.372000000
