158
-3030.36957
C     0.921000000     0.873000000    -0.694000000
H     1.636000000     1.405000000    -1.316000000
C     0.962000000    -0.481000000    -0.729000000
H     1.665000000    -0.994000000    -1.381000000
C     0.049000000    -1.177000000     0.007000000
H     0.226000000    -2.301000000     0.119000000
C    -0.875000000    -0.552000000     0.818000000
H    -1.425000000    -1.149000000     1.542000000
C    -1.011000000     0.847000000     0.697000000
H    -1.816000000     1.337000000     1.238000000
C    -0.042000000     1.585000000    -0.011000000
C    -0.091000000     3.044000000     0.035000000
O    -1.160000000     3.576000000     0.272000000
O     1.000000000     3.616000000    -0.136000000
O    -6.330000000    -1.504000000     0.554000000
H    -7.155000000    -1.132000000     0.867000000
H    -5.777000000    -0.743000000     0.375000000
O    -0.040000000    -7.006000000    -0.280000000
H     0.650000000    -7.224000000    -0.907000000
H     0.373000000    -6.392000000     0.327000000
O    -4.804000000     0.793000000     0.562000000
H    -4.105000000     1.385000000     0.287000000
H    -5.511000000     1.372000000     0.846000000
O    -2.742000000    -1.984000000    -4.838000000
H    -1.842000000    -1.769000000    -4.594000000
H    -3.113000000    -1.155000000    -5.138000000
O    -2.804000000     4.979000000     1.770000000
H    -2.179000000     4.366000000     1.384000000
H    -3.567000000     4.441000000     1.983000000
O    -3.519000000     2.953000000    -0.597000000
H    -2.674000000     3.158000000    -0.196000000
H    -3.994000000     3.784000000    -0.592000000
O    -4.149000000     5.978000000    -0.888000000
H    -4.391000000     6.610000000    -0.212000000
H    -3.698000000     6.498000000    -1.553000000
O    -0.797000000     6.384000000    -0.266000000
H    -1.117000000     5.486000000    -0.178000000
H    -1.574000000     6.929000000    -0.137000000
O    -0.203000000    -0.991000000    -4.661000000
H     0.611000000    -1.283000000    -5.071000000
H    -0.481000000    -0.241000000    -5.187000000
O    -2.259000000    -6.499000000    -1.949000000
H    -2.260000000    -6.925000000    -1.091000000
H    -1.465000000    -5.965000000    -1.950000000
O     1.293000000    -4.810000000     1.582000000
H     0.961000000    -4.038000000     2.041000000
H     2.221000000    -4.845000000     1.813000000
O    -2.617000000     0.908000000    -3.313000000
H    -3.147000000     1.662000000    -3.574000000
H    -1.869000000     1.289000000    -2.853000000
O     2.568000000     8.516000000     1.612000000
H     1.759000000     8.924000000     1.300000000
H     2.667000000     7.734000000     1.069000000
O     2.066000000     4.516000000    -2.505000000
H     1.853000000     4.106000000    -1.667000000
H     1.217000000     4.723000000    -2.894000000
O    -1.303000000    -1.969000000     5.404000000
H    -1.019000000    -1.055000000     5.399000000
H    -0.763000000    -2.384000000     6.076000000
O     3.511000000    -4.035000000    -2.901000000
H     3.873000000    -3.226000000    -3.264000000
H     2.562000000    -3.910000000    -2.937000000
O     4.413000000    -2.180000000    -4.410000000
H     5.306000000    -2.514000000    -4.329000000
H     4.488000000    -1.436000000    -5.007000000
O     0.360000000     8.186000000    -2.058000000
H     1.279000000     8.169000000    -2.325000000
H     0.290000000     7.498000000    -1.396000000
O     1.906000000     5.941000000     0.999000000
H     1.612000000     5.254000000     0.401000000
H     1.323000000     5.866000000     1.755000000
O     4.785000000    -1.897000000     0.985000000
H     5.735000000    -1.783000000     0.959000000
H     4.481000000    -1.566000000     0.139000000
O    -4.598000000    -0.304000000     3.873000000
H    -4.566000000     0.606000000     4.169000000
H    -4.031000000    -0.325000000     3.102000000
O    -5.161000000     3.649000000     2.127000000
H    -5.428000000     3.950000000     2.995000000
H    -5.972000000     3.350000000     1.717000000
O     4.583000000    -0.758000000    -1.431000000
H     4.147000000    -0.111000000    -1.986000000
H     4.473000000    -1.587000000    -1.896000000
O    -3.639000000    -5.542000000     1.649000000
H    -3.772000000    -4.744000000     1.137000000
H    -3.119000000    -5.260000000     2.402000000
O     4.151000000     1.711000000    -2.723000000
H     4.166000000     2.159000000    -1.877000000
H     5.026000000     1.852000000    -3.085000000
O     3.697000000     2.653000000    -0.025000000
H     2.824000000     3.027000000     0.091000000
H     3.860000000     2.167000000     0.784000000
O     5.660000000     4.500000000    -0.051000000
H     5.178000000     3.695000000    -0.240000000
H     5.206000000     4.879000000     0.702000000
O     4.090000000    -4.113000000     2.434000000
H     4.893000000    -4.625000000     2.336000000
H     4.253000000    -3.314000000     1.934000000
O     4.606000000     5.438000000    -2.605000000
H     3.825000000     4.884000000    -2.597000000
H     5.036000000     5.257000000    -1.769000000
O     3.564000000     0.181000000     2.375000000
H     2.993000000    -0.219000000     3.031000000
H     4.046000000    -0.555000000     1.997000000
O    -1.873000000    -3.966000000     3.355000000
H    -1.736000000    -3.251000000     3.977000000
H    -1.124000000    -3.913000000     2.761000000
O     1.069000000    -7.611000000     2.606000000
H     1.290000000    -6.850000000     2.069000000
H     1.900000000    -8.073000000     2.719000000
O     1.306000000    -6.099000000    -4.445000000
H     1.402000000    -5.331000000    -3.882000000
H     0.642000000    -5.844000000    -5.087000000
O     0.732000000    -2.605000000     2.967000000
H     1.091000000    -1.797000000     2.600000000
H     1.222000000    -2.737000000     3.779000000
O    -0.073000000     0.704000000     6.066000000
H     0.588000000     0.164000000     6.500000000
H     0.389000000     1.097000000     5.325000000
O    -3.770000000    -2.877000000     0.279000000
H    -3.460000000    -2.387000000    -0.484000000
H    -4.601000000    -2.463000000     0.508000000
O     0.333000000     6.103000000     3.471000000
H     0.521000000     6.511000000     4.316000000
H    -0.372000000     6.633000000     3.100000000
O    -2.368000000    -1.481000000    -1.752000000
H    -1.701000000    -0.922000000    -1.353000000
H    -2.653000000    -0.998000000    -2.528000000
O    -1.021000000     3.927000000    -2.799000000
H    -1.204000000     4.745000000    -3.261000000
H    -1.478000000     4.015000000    -1.963000000
O    -6.123000000     2.137000000    -2.071000000
H    -5.424000000     1.873000000    -1.473000000
H    -5.731000000     2.824000000    -2.610000000
O    -2.413000000     7.134000000     3.262000000
H    -2.727000000     6.324000000     2.858000000
H    -2.779000000     7.831000000     2.717000000
O     4.298000000     4.893000000     2.196000000
H     4.656000000     5.461000000     2.878000000
H     3.452000000     5.285000000     1.978000000
O     0.599000000     3.226000000     3.058000000
H     0.492000000     4.167000000     3.202000000
H     0.268000000     3.081000000     2.171000000
O     2.571000000     2.689000000    -4.601000000
H     2.570000000     3.346000000    -3.905000000
H     2.978000000     1.920000000    -4.203000000
O     4.708000000    -5.588000000    -0.374000000
H     4.671000000    -6.259000000     0.308000000
H     3.800000000    -5.309000000    -0.486000000
O    -3.518000000    -0.899000000     6.287000000
H    -2.761000000    -1.429000000     6.038000000
H    -3.949000000    -0.692000000     5.458000000
O     0.804000000    -3.511000000    -3.153000000
H     0.189000000    -3.609000000    -2.426000000
H     0.379000000    -2.891000000    -3.745000000
O    -1.222000000    -3.990000000    -1.338000000
H    -1.736000000    -3.198000000    -1.494000000
H    -1.348000000    -4.178000000    -0.408000000
