158
-3040.63455
C     0.999000000    -0.454000000    -1.041000000
H     1.840000000    -0.979000000    -1.488000000
C    -0.113000000    -1.164000000    -0.657000000
H    -0.270000000    -2.197000000    -0.956000000
C    -0.984000000    -0.655000000     0.280000000
H    -1.903000000    -1.261000000     0.632000000
C    -0.877000000     0.658000000     0.683000000
H    -1.590000000     1.013000000     1.423000000
C     0.266000000     1.375000000     0.332000000
H     0.520000000     2.306000000     0.833000000
C     1.191000000     0.879000000    -0.565000000
C     2.477000000     1.675000000    -0.768000000
O     2.642000000     2.718000000    -0.146000000
O     3.236000000     1.460000000    -1.718000000
O    -3.272000000    -4.991000000     0.676000000
H    -3.181000000    -5.926000000     0.859000000
H    -2.441000000    -4.745000000     0.268000000
O     6.731000000     0.793000000    -2.832000000
H     7.303000000     0.466000000    -2.137000000
H     6.715000000     1.741000000    -2.702000000
O    -1.134000000     7.056000000     1.320000000
H    -0.742000000     7.746000000     0.785000000
H    -0.517000000     6.326000000     1.260000000
O    -5.753000000    -1.947000000    -0.568000000
H    -5.400000000    -2.301000000     0.249000000
H    -6.424000000    -1.324000000    -0.288000000
O    -5.926000000     1.722000000     2.040000000
H    -5.862000000     0.773000000     1.930000000
H    -6.263000000     2.038000000     1.202000000
O     7.401000000     3.645000000    -1.688000000
H     7.342000000     3.349000000    -0.780000000
H     6.498000000     3.852000000    -1.931000000
O     3.857000000    -3.733000000     2.120000000
H     3.277000000    -2.977000000     2.214000000
H     4.073000000    -3.754000000     1.188000000
O     4.008000000    -0.699000000     0.944000000
H     3.203000000    -0.990000000     1.373000000
H     4.078000000    -1.253000000     0.166000000
O     5.500000000     1.311000000    -5.499000000
H     5.892000000     1.061000000    -4.663000000
H     6.241000000     1.592000000    -6.037000000
O     0.021000000    -0.255000000     4.180000000
H    -0.355000000     0.545000000     3.816000000
H     0.919000000    -0.015000000     4.409000000
O    -2.358000000     3.590000000     1.990000000
H    -1.808000000     3.903000000     1.272000000
H    -3.051000000     4.246000000     2.064000000
O    -2.235000000    -2.956000000     2.318000000
H    -2.722000000    -3.566000000     1.764000000
H    -2.828000000    -2.215000000     2.439000000
O    -6.097000000    -1.838000000     4.326000000
H    -5.657000000    -2.451000000     3.737000000
H    -5.557000000    -1.048000000     4.295000000
O    -3.301000000    -3.112000000    -4.012000000
H    -3.631000000    -3.455000000    -3.182000000
H    -3.574000000    -2.194000000    -4.016000000
O     2.498000000     0.928000000     4.544000000
H     3.277000000     0.445000000     4.266000000
H     2.571000000     0.969000000     5.498000000
O     2.876000000     2.090000000    -4.320000000
H     2.841000000     1.734000000    -3.432000000
H     3.565000000     1.585000000    -4.754000000
O    -0.174000000     5.294000000    -3.071000000
H     0.150000000     4.664000000    -3.715000000
H     0.176000000     4.983000000    -2.236000000
O     0.336000000     2.958000000    -4.673000000
H     1.211000000     2.724000000    -4.362000000
H    -0.256000000     2.412000000    -4.155000000
O    -2.416000000    -1.370000000     5.659000000
H    -2.260000000    -2.114000000     6.240000000
H    -1.541000000    -1.076000000     5.406000000
O     4.442000000    -0.943000000    -2.217000000
H     5.124000000    -0.649000000    -2.821000000
H     4.020000000    -0.136000000    -1.920000000
O     0.682000000     4.970000000     2.149000000
H     1.356000000     5.605000000     2.392000000
H     0.382000000     4.608000000     2.983000000
O    -2.780000000     3.599000000    -1.503000000
H    -2.423000000     2.712000000    -1.548000000
H    -2.531000000     4.000000000    -2.335000000
O    -1.612000000     2.064000000     4.298000000
H    -2.061000000     2.535000000     3.596000000
H    -1.228000000     2.752000000     4.841000000
O     4.740000000     3.551000000    -2.124000000
H     4.263000000     2.722000000    -2.167000000
H     4.478000000     3.936000000    -1.288000000
O     1.318000000     3.656000000     4.647000000
H     1.000000000     3.668000000     5.550000000
H     1.880000000     2.883000000     4.601000000
O    -0.085000000    -2.968000000     3.977000000
H    -0.713000000    -2.901000000     3.257000000
H    -0.194000000    -2.153000000     4.467000000
O     0.623000000    -6.078000000     0.427000000
H     0.097000000    -6.851000000     0.222000000
H     0.526000000    -5.965000000     1.372000000
O     4.594000000     4.871000000     0.225000000
H     3.811000000     4.335000000     0.350000000
H     4.269000000     5.684000000    -0.163000000
O     4.078000000    -2.900000000    -4.354000000
H     3.764000000    -2.670000000    -3.479000000
H     5.032000000    -2.876000000    -4.280000000
O     6.137000000     5.931000000     2.827000000
H     6.601000000     6.060000000     2.000000000
H     5.297000000     5.548000000     2.574000000
O    -2.453000000     1.100000000     6.885000000
H    -2.796000000     0.209000000     6.825000000
H    -2.023000000     1.249000000     6.043000000
O     3.814000000     7.278000000    -0.748000000
H     3.588000000     7.312000000    -1.677000000
H     3.929000000     8.194000000    -0.495000000
O     3.753000000     4.943000000    -4.344000000
H     3.332000000     4.203000000    -4.781000000
H     4.238000000     4.548000000    -3.619000000
O    -5.251000000    -3.601000000     2.120000000
H    -5.698000000    -3.984000000     2.875000000
H    -4.750000000    -4.325000000     1.745000000
O    -3.800000000     0.129000000     3.906000000
H    -3.155000000     0.836000000     3.883000000
H    -3.370000000    -0.571000000     4.398000000
O    -5.499000000     2.755000000     4.645000000
H    -5.333000000     2.190000000     3.891000000
H    -6.403000000     3.048000000     4.531000000
O    -4.919000000    -0.944000000    -3.797000000
H    -5.407000000    -0.683000000    -3.016000000
H    -5.180000000    -0.310000000    -4.465000000
O     0.663000000     4.491000000    -0.670000000
H     1.227000000     3.726000000    -0.561000000
H     0.536000000     4.824000000     0.219000000
O    -4.621000000    -4.039000000    -1.887000000
H    -5.055000000    -3.236000000    -1.600000000
H    -4.271000000    -4.423000000    -1.083000000
O     4.230000000    -3.048000000    -0.528000000
H     4.536000000    -3.817000000    -1.008000000
H     4.270000000    -2.336000000    -1.166000000
O     5.423000000     1.579000000     1.221000000
H     4.771000000     0.878000000     1.221000000
H     4.931000000     2.363000000     0.979000000
O    -1.081000000    -4.645000000    -1.242000000
H    -0.365000000    -4.916000000    -0.668000000
H    -0.909000000    -5.095000000    -2.069000000
O    -5.284000000     3.511000000    -0.641000000
H    -5.198000000     3.972000000     0.193000000
H    -4.390000000     3.457000000    -0.978000000
O    -1.211000000     1.273000000    -2.695000000
H    -0.832000000     0.884000000    -1.907000000
H    -1.195000000     0.567000000    -3.342000000
O    -1.368000000    -0.837000000    -4.380000000
H    -1.415000000    -1.704000000    -3.978000000
H    -1.058000000    -1.002000000    -5.270000000
O    -7.768000000    -2.396000000    -2.588000000
H    -7.089000000    -2.334000000    -1.917000000
H    -8.549000000    -2.030000000    -2.173000000
O     1.831000000    -1.980000000     2.130000000
H     1.375000000    -2.355000000     2.884000000
H     1.136000000    -1.589000000     1.600000000
O     3.256000000     3.281000000     2.370000000
H     3.272000000     2.493000000     2.912000000
H     2.750000000     3.029000000     1.597000000
