158
-3064.30339
C     1.129000000    -0.921000000    -0.348000000
H     1.905000000    -1.682000000    -0.372000000
C     0.530000000    -0.816000000     0.887000000
H     0.943000000    -1.424000000     1.688000000
C    -0.593000000    -0.044000000     1.046000000
H    -1.033000000    -0.054000000     2.058000000
C    -1.069000000     0.753000000     0.008000000
H    -1.884000000     1.460000000     0.137000000
C    -0.351000000     0.776000000    -1.238000000
H    -0.672000000     1.357000000    -2.098000000
C     0.787000000    -0.003000000    -1.346000000
C     1.554000000     0.025000000    -2.621000000
O     1.292000000     0.750000000    -3.569000000
O     2.288000000    -0.955000000    -2.822000000
O     2.619000000    -6.423000000     1.034000000
H     1.828000000    -6.283000000     1.556000000
H     2.914000000    -5.541000000     0.805000000
O     5.385000000     0.238000000    -1.480000000
H     6.035000000     0.633000000    -0.899000000
H     4.606000000     0.785000000    -1.376000000
O    -4.975000000     3.024000000     1.036000000
H    -5.619000000     3.727000000     0.956000000
H    -4.499000000     3.040000000     0.205000000
O     2.130000000    -3.451000000     3.259000000
H     1.434000000    -3.784000000     2.693000000
H     2.505000000    -2.717000000     2.772000000
O     5.925000000     2.754000000    -3.571000000
H     6.541000000     2.753000000    -2.838000000
H     5.093000000     2.481000000    -3.184000000
O    -0.587000000    -2.276000000    -6.101000000
H    -0.868000000    -2.710000000    -6.907000000
H     0.295000000    -2.613000000    -5.943000000
O     1.784000000     1.177000000    -6.115000000
H     2.634000000     1.598000000    -6.244000000
H     1.770000000     0.943000000    -5.187000000
O    -2.097000000    -0.804000000     5.135000000
H    -3.049000000    -0.841000000     5.232000000
H    -1.885000000    -1.546000000     4.570000000
O    -3.520000000     3.746000000     3.480000000
H    -3.550000000     4.686000000     3.653000000
H    -3.789000000     3.662000000     2.565000000
O    -2.153000000    -4.803000000     1.415000000
H    -2.265000000    -4.579000000     0.491000000
H    -2.980000000    -5.214000000     1.664000000
O     0.779000000    -1.753000000     5.392000000
H     1.241000000    -2.534000000     5.088000000
H    -0.060000000    -1.777000000     4.932000000
O    -4.376000000     0.313000000    -2.280000000
H    -4.122000000     0.070000000    -3.170000000
H    -4.973000000     1.053000000    -2.395000000
O    -4.179000000     0.293000000     0.904000000
H    -4.600000000     1.150000000     0.973000000
H    -3.921000000     0.226000000    -0.015000000
O     2.148000000    -2.869000000    -5.346000000
H     2.321000000    -2.295000000    -4.600000000
H     2.290000000    -2.315000000    -6.114000000
O    -1.740000000     1.961000000     4.643000000
H    -2.429000000     2.464000000     4.210000000
H    -2.169000000     1.149000000     4.912000000
O    -1.066000000     0.107000000    -4.846000000
H    -0.742000000    -0.337000000    -5.629000000
H    -0.279000000     0.447000000    -4.420000000
O    -3.089000000     5.878000000     0.637000000
H    -2.222000000     5.505000000     0.480000000
H    -3.527000000     5.835000000    -0.213000000
O    -1.712000000     2.787000000    -4.565000000
H    -1.682000000     1.889000000    -4.897000000
H    -1.790000000     3.329000000    -5.350000000
O    -1.842000000    -2.841000000     3.112000000
H    -1.435000000    -3.655000000     3.410000000
H    -2.296000000    -3.082000000     2.304000000
O    -1.786000000     4.254000000     5.817000000
H    -1.827000000     3.353000000     5.499000000
H    -2.574000000     4.355000000     6.351000000
O     5.431000000    -2.331000000    -2.017000000
H     5.339000000    -1.415000000    -1.756000000
H     5.691000000    -2.784000000    -1.214000000
O     3.145000000     4.796000000    -4.123000000
H     2.450000000     4.229000000    -3.787000000
H     3.635000000     5.061000000    -3.345000000
O     0.788000000     1.209000000     4.153000000
H     0.843000000     0.304000000     4.458000000
H    -0.141000000     1.429000000     4.223000000
O     4.051000000     2.949000000    -6.380000000
H     4.998000000     2.833000000    -6.454000000
H     3.915000000     3.239000000    -5.478000000
O     4.552000000     0.033000000    -4.044000000
H     4.967000000     0.007000000    -3.181000000
H     3.673000000    -0.315000000    -3.898000000
O     2.506000000    -1.365000000    -7.564000000
H     2.108000000    -0.555000000    -7.246000000
H     1.880000000    -1.705000000    -8.204000000
O     3.413000000     1.984000000    -1.070000000
H     3.312000000     2.487000000    -0.262000000
H     2.849000000     2.429000000    -1.702000000
O     3.587000000    -0.146000000     3.212000000
H     4.000000000    -0.419000000     4.031000000
H     2.674000000     0.018000000     3.447000000
O    -3.976000000     2.929000000    -1.605000000
H    -4.583000000     3.628000000    -1.848000000
H    -3.480000000     2.754000000    -2.404000000
O     0.223000000    -5.592000000     2.391000000
H     0.097000000    -5.779000000     3.321000000
H    -0.590000000    -5.166000000     2.120000000
O    -5.598000000     2.873000000     5.284000000
H    -4.927000000     3.104000000     4.641000000
H    -6.417000000     2.878000000     4.788000000
O     5.101000000    -4.239000000    -3.951000000
H     5.172000000    -3.698000000    -3.165000000
H     5.443000000    -3.686000000    -4.654000000
O    -2.553000000    -2.058000000    -1.868000000
H    -2.950000000    -1.523000000    -2.555000000
H    -1.731000000    -1.613000000    -1.662000000
O    -1.705000000     5.791000000    -3.942000000
H    -0.915000000     5.610000000    -3.433000000
H    -2.257000000     5.021000000    -3.809000000
O     1.348000000    -5.674000000    -4.076000000
H     1.600000000    -4.846000000    -4.486000000
H     0.983000000    -5.420000000    -3.229000000
O     6.081000000    -1.986000000    -5.432000000
H     5.691000000    -1.350000000    -4.832000000
H     6.975000000    -1.673000000    -5.566000000
O     2.832000000    -3.621000000    -2.229000000
H     3.554000000    -3.782000000    -2.837000000
H     2.657000000    -2.683000000    -2.310000000
O     1.335000000     3.254000000    -2.680000000
H     0.992000000     2.490000000    -3.145000000
H     0.656000000     3.921000000    -2.784000000
O     3.339000000    -4.008000000     0.314000000
H     3.910000000    -3.428000000     0.818000000
H     3.455000000    -3.728000000    -0.594000000
O    -2.222000000    -4.580000000    -1.337000000
H    -2.404000000    -3.681000000    -1.611000000
H    -1.267000000    -4.643000000    -1.343000000
O    -0.292000000     5.426000000    -1.429000000
H     0.403000000     4.978000000    -0.946000000
H    -0.114000000     6.357000000    -1.295000000
O     0.488000000    -4.395000000    -1.412000000
H     1.315000000    -4.142000000    -1.823000000
H     0.747000000    -4.936000000    -0.666000000
O     0.735000000     2.921000000     6.524000000
H     0.002000000     3.496000000     6.303000000
H     0.778000000     2.299000000     5.797000000
O     0.709000000     2.840000000     1.713000000
H     0.485000000     2.463000000     0.862000000
H     0.771000000     2.086000000     2.299000000
O    -3.282000000    -1.329000000    -4.593000000
H    -2.662000000    -0.637000000    -4.823000000
H    -2.753000000    -2.126000000    -4.571000000
O    -4.815000000    -0.252000000     5.682000000
H    -5.398000000    -0.972000000     5.923000000
H    -4.818000000     0.325000000     6.446000000
O    -6.111000000    -0.329000000     3.152000000
H    -5.948000000    -0.129000000     4.074000000
H    -5.252000000    -0.261000000     2.737000000
O     4.502000000    -1.976000000     1.526000000
H     4.039000000    -1.230000000     1.908000000
H     5.419000000    -1.835000000     1.762000000
