158
-3036.14937
C     1.043000000    -1.021000000     0.114000000
H     1.783000000    -1.804000000     0.257000000
C    -0.016000000    -0.907000000     0.982000000
H    -0.070000000    -1.394000000     1.953000000
C    -0.900000000     0.165000000     0.878000000
H    -1.680000000     0.413000000     1.665000000
C    -0.803000000     0.904000000    -0.320000000
H    -1.544000000     1.686000000    -0.460000000
C     0.195000000     0.720000000    -1.286000000
H     0.204000000     1.331000000    -2.185000000
C     1.159000000    -0.230000000    -1.059000000
C     2.326000000    -0.429000000    -1.982000000
O     2.321000000     0.107000000    -3.104000000
O     3.326000000    -0.957000000    -1.629000000
O     4.280000000    -1.001000000     0.880000000
H     3.703000000    -0.499000000     1.456000000
H     3.805000000    -1.053000000     0.050000000
O    -6.089000000     1.659000000     1.216000000
H    -7.008000000     1.563000000     0.966000000
H    -5.717000000     2.231000000     0.545000000
O     1.918000000    -3.421000000     3.402000000
H     2.186000000    -3.376000000     2.484000000
H     1.870000000    -2.508000000     3.684000000
O     3.314000000     0.201000000    -5.508000000
H     4.067000000    -0.390000000    -5.480000000
H     2.935000000     0.147000000    -4.630000000
O     2.880000000     0.177000000     2.851000000
H     2.437000000     0.946000000     2.492000000
H     3.172000000     0.452000000     3.719000000
O    -2.576000000    -1.083000000     5.569000000
H    -3.483000000    -1.187000000     5.281000000
H    -2.114000000    -1.822000000     5.173000000
O    -4.034000000     2.095000000     3.497000000
H    -4.061000000     2.777000000     2.826000000
H    -4.942000000     1.804000000     3.580000000
O    -0.500000000    -4.556000000     1.631000000
H     0.078000000    -4.551000000     0.869000000
H    -1.373000000    -4.710000000     1.270000000
O     0.791000000    -1.849000000     5.805000000
H     0.357000000    -1.419000000     6.542000000
H     0.139000000    -1.838000000     5.104000000
O    -4.395000000     0.907000000    -2.355000000
H    -4.115000000     1.164000000    -3.233000000
H    -5.349000000     0.855000000    -2.414000000
O     2.168000000     1.222000000    -7.805000000
H     2.308000000     0.300000000    -7.589000000
H     2.928000000     1.673000000    -7.438000000
O    -4.712000000    -0.834000000     0.170000000
H    -5.214000000    -0.366000000     0.837000000
H    -4.459000000    -0.158000000    -0.458000000
O     1.997000000    -3.152000000    -4.906000000
H     1.509000000    -2.715000000    -4.208000000
H     2.435000000    -2.441000000    -5.373000000
O    -1.747000000     1.790000000     5.248000000
H    -2.294000000     2.048000000     4.506000000
H    -1.879000000     0.845000000     5.326000000
O     0.423000000    -0.252000000    -5.244000000
H     1.034000000    -0.490000000    -5.942000000
H     0.972000000    -0.163000000    -4.465000000
O    -3.512000000     3.932000000     1.478000000
H    -2.612000000     3.913000000     1.154000000
H    -4.035000000     3.584000000     0.755000000
O     6.180000000     2.876000000    -0.351000000
H     5.570000000     3.600000000    -0.216000000
H     5.622000000     2.101000000    -0.420000000
O    -3.524000000    -4.462000000     4.068000000
H    -4.415000000    -4.399000000     3.725000000
H    -3.638000000    -4.708000000     4.986000000
O     0.229000000     2.530000000    -4.710000000
H     0.476000000     1.607000000    -4.778000000
H    -0.111000000     2.752000000    -5.577000000
O    -1.361000000    -2.969000000     3.971000000
H    -0.692000000    -3.416000000     3.452000000
H    -2.156000000    -3.483000000     3.830000000
O     6.818000000    -0.453000000    -0.005000000
H     6.047000000    -0.589000000     0.546000000
H     7.455000000    -1.092000000     0.314000000
O     0.422000000     3.296000000     3.960000000
H     0.749000000     4.041000000     4.465000000
H    -0.450000000     3.128000000     4.318000000
O     5.974000000    -1.265000000    -2.423000000
H     6.502000000    -0.910000000    -1.707000000
H     5.072000000    -1.205000000    -2.109000000
O     1.282000000     5.511000000    -3.001000000
H     1.477000000     5.838000000    -2.123000000
H     0.542000000     4.917000000    -2.876000000
O     4.634000000     1.459000000    -2.783000000
H     5.218000000     0.905000000    -2.266000000
H     3.787000000     1.015000000    -2.746000000
O    -6.384000000    -2.792000000     1.025000000
H    -6.845000000    -2.990000000     0.210000000
H    -5.620000000    -2.284000000     0.751000000
O    -5.057000000     3.171000000    -0.801000000
H    -5.511000000     3.776000000    -1.387000000
H    -4.539000000     2.616000000    -1.384000000
O    -4.820000000     4.560000000     4.953000000
H    -4.344000000     5.390000000     4.968000000
H    -4.237000000     3.957000000     4.492000000
O     6.783000000    -3.859000000    -2.178000000
H     6.387000000    -3.004000000    -2.347000000
H     7.521000000    -3.906000000    -2.785000000
O    -2.071000000    -1.899000000    -0.952000000
H    -2.939000000    -1.495000000    -0.919000000
H    -1.582000000    -1.472000000    -0.250000000
O    -0.824000000     4.074000000    -2.598000000
H    -1.653000000     4.226000000    -3.051000000
H    -0.410000000     3.364000000    -3.088000000
O     5.794000000    -1.244000000    -5.211000000
H     5.908000000    -1.314000000    -4.263000000
H     6.668000000    -1.035000000    -5.542000000
O     3.796000000    -3.788000000    -1.789000000
H     4.595000000    -3.832000000    -2.314000000
H     3.545000000    -2.865000000    -1.811000000
O     3.370000000     3.273000000    -4.412000000
H     3.884000000     2.627000000    -3.928000000
H     2.493000000     3.215000000    -4.032000000
O     0.373000000    -4.838000000     5.288000000
H    -0.343000000    -4.215000000     5.167000000
H     0.956000000    -4.680000000     4.545000000
O     3.297000000    -3.480000000     1.033000000
H     3.853000000    -2.705000000     1.118000000
H     3.268000000    -3.653000000     0.092000000
O    -2.223000000    -4.910000000    -1.436000000
H    -2.306000000    -3.957000000    -1.414000000
H    -2.042000000    -5.113000000    -2.354000000
O    -3.385000000     3.996000000    -3.432000000
H    -3.975000000     4.749000000    -3.464000000
H    -3.179000000     3.812000000    -4.348000000
O    -5.110000000    -1.900000000     5.458000000
H    -4.719000000    -2.712000000     5.780000000
H    -6.051000000    -2.075000000     5.449000000
O    -1.142000000     4.121000000     0.407000000
H    -0.336000000     4.023000000     0.914000000
H    -0.871000000     3.983000000    -0.501000000
O    -0.107000000    -2.510000000    -2.716000000
H    -0.688000000    -2.197000000    -2.023000000
H    -0.601000000    -2.372000000    -3.524000000
O    -0.595000000     2.436000000     7.717000000
H    -1.402000000     2.770000000     8.110000000
H    -0.843000000     2.206000000     6.821000000
O    -1.781000000     6.162000000     3.297000000
H    -2.192000000     5.583000000     2.656000000
H    -0.981000000     6.465000000     2.867000000
O     1.249000000     2.194000000     1.641000000
H     0.770000000     1.374000000     1.520000000
H     0.772000000     2.649000000     2.335000000
O    -2.628000000    -0.208000000    -5.224000000
H    -1.720000000     0.064000000    -5.095000000
H    -3.073000000     0.582000000    -5.533000000
O     0.554000000    -5.162000000    -0.958000000
H    -0.336000000    -5.136000000    -1.309000000
H     1.075000000    -4.663000000    -1.588000000
O    -6.208000000     0.731000000     4.635000000
H    -5.589000000     0.001000000     4.650000000
H    -6.061000000     1.186000000     5.464000000
O     3.344000000     3.849000000     0.394000000
H     3.424000000     4.529000000     1.063000000
H     3.103000000     3.061000000     0.882000000
