158
-3017.30260
C     0.577000000    -1.008000000    -0.899000000
H     0.986000000    -1.820000000    -1.496000000
C     0.370000000    -1.206000000     0.451000000
H     0.783000000    -2.129000000     0.849000000
C    -0.176000000    -0.187000000     1.189000000
H    -0.325000000    -0.370000000     2.227000000
C    -0.560000000     0.960000000     0.573000000
H    -1.082000000     1.735000000     1.128000000
C    -0.385000000     1.135000000    -0.745000000
H    -0.706000000     2.097000000    -1.139000000
C     0.122000000     0.152000000    -1.568000000
C     0.542000000     0.421000000    -2.984000000
O    -0.169000000     1.163000000    -3.625000000
O     1.314000000    -0.305000000    -3.572000000
O     5.071000000     0.708000000    -0.020000000
H     4.485000000     0.469000000     0.698000000
H     5.313000000     1.616000000     0.160000000
O     1.039000000     2.061000000     7.923000000
H     1.494000000     2.733000000     7.415000000
H     0.561000000     1.550000000     7.270000000
O    -5.472000000     1.760000000    -1.185000000
H    -5.123000000     2.432000000    -1.771000000
H    -6.238000000     1.417000000    -1.645000000
O     2.313000000    -4.062000000     2.179000000
H     2.757000000    -4.910000000     2.183000000
H     2.298000000    -3.804000000     1.257000000
O     3.123000000    -0.604000000     6.594000000
H     3.043000000    -0.694000000     7.544000000
H     2.356000000    -0.090000000     6.338000000
O     4.598000000    -1.149000000     4.455000000
H     4.085000000    -0.904000000     5.225000000
H     4.502000000    -2.100000000     4.396000000
O     2.145000000     0.616000000    -5.850000000
H     1.794000000     0.494000000    -4.968000000
H     2.947000000     0.094000000    -5.863000000
O    -0.525000000     0.824000000     6.075000000
H    -0.933000000     0.113000000     5.580000000
H    -1.233000000     1.175000000     6.616000000
O    -0.906000000     2.633000000     3.628000000
H    -0.569000000     3.451000000     3.993000000
H    -0.886000000     2.017000000     4.361000000
O     1.191000000    -2.653000000    -4.758000000
H     1.084000000    -1.848000000    -4.252000000
H     0.358000000    -2.759000000    -5.218000000
O    -2.022000000     2.976000000    -4.389000000
H    -1.460000000     2.285000000    -4.039000000
H    -2.710000000     2.509000000    -4.862000000
O     3.400000000     2.366000000    -7.765000000
H     3.974000000     1.912000000    -8.382000000
H     2.798000000     1.690000000    -7.455000000
O    -2.749000000    -0.949000000    -0.783000000
H    -2.165000000    -1.570000000    -0.348000000
H    -2.698000000    -0.157000000    -0.248000000
O    -1.928000000     5.607000000     3.579000000
H    -1.016000000     5.843000000     3.407000000
H    -2.331000000     6.419000000     3.888000000
O    -5.246000000     4.138000000     0.493000000
H    -4.701000000     4.089000000     1.279000000
H    -5.123000000     3.292000000     0.063000000
O     3.417000000     4.507000000    -0.024000000
H     3.718000000     4.524000000     0.885000000
H     2.464000000     4.448000000     0.041000000
O    -5.206000000    -3.235000000     3.686000000
H    -5.012000000    -3.996000000     4.233000000
H    -4.366000000    -2.786000000     3.594000000
O     0.228000000     4.363000000     5.237000000
H     0.945000000     4.313000000     5.869000000
H    -0.139000000     5.239000000     5.360000000
O    -3.265000000    -3.555000000    -2.206000000
H    -4.202000000    -3.398000000    -2.325000000
H    -2.851000000    -3.100000000    -2.940000000
O    -3.185000000    -1.870000000     2.416000000
H    -3.764000000    -1.221000000     2.017000000
H    -3.217000000    -2.618000000     1.820000000
O     1.508000000     3.505000000     2.235000000
H     1.154000000     3.979000000     2.987000000
H     0.878000000     2.803000000     2.075000000
O     1.584000000     0.046000000     4.000000000
H     0.775000000     0.295000000     4.447000000
H     1.706000000    -0.877000000     4.221000000
O     4.339000000     1.118000000    -3.625000000
H     4.630000000     1.836000000    -3.062000000
H     4.582000000     0.325000000    -3.147000000
O    -3.889000000     2.156000000    -5.866000000
H    -4.670000000     2.643000000    -5.602000000
H    -3.473000000     2.712000000    -6.525000000
O     3.023000000     0.385000000     1.686000000
H     2.181000000     0.280000000     1.243000000
H     2.820000000     0.273000000     2.615000000
O    -0.747000000    -2.181000000    -6.813000000
H    -1.583000000    -1.864000000    -7.156000000
H    -0.556000000    -2.962000000    -7.332000000
O     2.672000000    -1.516000000    -8.106000000
H     1.962000000    -1.586000000    -7.468000000
H     3.456000000    -1.367000000    -7.577000000
O    -3.750000000     3.815000000    -2.430000000
H    -3.026000000     3.544000000    -2.993000000
H    -3.350000000     4.407000000    -1.793000000
O     5.375000000    -1.559000000    -1.365000000
H     5.155000000    -1.017000000    -0.608000000
H     4.601000000    -1.512000000    -1.926000000
O    -3.168000000    -4.149000000     0.455000000
H    -3.166000000    -5.106000000     0.459000000
H    -3.195000000    -3.914000000    -0.473000000
O     4.971000000    -0.535000000    -6.264000000
H     5.881000000    -0.412000000    -6.535000000
H     4.814000000     0.164000000    -5.629000000
O    -2.792000000    -1.262000000    -3.467000000
H    -2.209000000    -0.546000000    -3.720000000
H    -2.833000000    -1.212000000    -2.512000000
O     1.219000000     3.417000000    -4.710000000
H     0.798000000     2.677000000    -4.273000000
H     1.876000000     3.016000000    -5.279000000
O     0.140000000     4.520000000    -0.223000000
H     0.317000000     5.449000000    -0.070000000
H     0.383000000     4.092000000     0.597000000
O     3.355000000    -1.786000000    -2.843000000
H     2.971000000    -2.535000000    -3.300000000
H     2.705000000    -1.089000000    -2.938000000
O    -1.293000000    -1.702000000     4.598000000
H    -2.019000000    -1.908000000     4.009000000
H    -0.507000000    -1.896000000     4.087000000
O    -0.509000000    -3.734000000     6.085000000
H    -0.145000000    -3.415000000     6.911000000
H    -0.877000000    -2.955000000     5.669000000
O     1.640000000    -2.802000000     4.230000000
H     2.020000000    -3.221000000     3.457000000
H     2.073000000    -3.228000000     4.970000000
O     2.770000000    -3.622000000    -0.646000000
H     3.388000000    -4.314000000    -0.881000000
H     3.130000000    -2.832000000    -1.049000000
O    -0.466000000     4.292000000    -7.046000000
H     0.187000000     4.146000000    -6.361000000
H    -1.251000000     3.848000000    -6.727000000
O    -4.470000000     0.528000000     1.157000000
H    -4.694000000     1.269000000     1.720000000
H    -4.750000000     0.798000000     0.283000000
O    -0.276000000     5.108000000    -3.203000000
H    -0.215000000     4.767000000    -2.311000000
H     0.335000000     4.571000000    -3.707000000
O    -3.654000000     3.057000000     2.732000000
H    -3.043000000     2.346000000     2.928000000
H    -3.113000000     3.846000000     2.736000000
O    -0.476000000     0.573000000    -7.332000000
H     0.005000000     0.816000000    -6.542000000
H    -0.762000000    -0.327000000    -7.172000000
O    -1.217000000    -5.717000000    -2.663000000
H    -1.831000000    -4.984000000    -2.694000000
H    -0.686000000    -5.552000000    -1.883000000
O     0.269000000    -5.175000000    -0.229000000
H     1.009000000    -4.568000000    -0.265000000
H     0.186000000    -5.396000000     0.699000000
O    -0.170000000    -6.041000000     2.547000000
H     0.350000000    -5.315000000     2.890000000
H    -0.452000000    -6.523000000     3.324000000
O     3.423000000     5.387000000    -3.924000000
H     2.709000000     4.814000000    -4.206000000
H     3.623000000     5.918000000    -4.695000000
