158
-3012.60034
C    -0.486000000    -1.236000000    -0.802000000
H    -1.048000000    -2.023000000    -1.299000000
C    -0.543000000    -1.112000000     0.589000000
H    -1.027000000    -1.917000000     1.135000000
C     0.022000000     0.069000000     1.230000000
H    -0.116000000     0.200000000     2.236000000
C     0.717000000     1.028000000     0.498000000
H     1.033000000     1.987000000     0.903000000
C     0.744000000     0.910000000    -0.897000000
H     1.067000000     1.740000000    -1.521000000
C     0.127000000    -0.218000000    -1.529000000
C     0.098000000    -0.236000000    -3.063000000
O     0.765000000     0.593000000    -3.705000000
O    -0.489000000    -1.125000000    -3.678000000
O     2.932000000    -1.583000000     5.809000000
H     2.174000000    -1.815000000     6.346000000
H     3.671000000    -1.599000000     6.419000000
O     3.996000000    -1.110000000    -2.797000000
H     4.731000000    -1.502000000    -3.269000000
H     3.757000000    -1.764000000    -2.141000000
O    -1.937000000     2.314000000     5.047000000
H    -2.602000000     2.114000000     4.389000000
H    -2.418000000     2.338000000     5.874000000
O     2.838000000     1.723000000     7.731000000
H     2.373000000     2.027000000     6.952000000
H     2.430000000     0.883000000     7.941000000
O    -0.797000000     3.972000000     3.042000000
H    -1.706000000     4.255000000     2.952000000
H    -0.804000000     3.375000000     3.791000000
O     1.796000000    -2.419000000    -4.643000000
H     2.498000000    -1.768000000    -4.641000000
H     1.036000000    -1.953000000    -4.296000000
O     1.581000000    -1.944000000    -8.011000000
H     1.206000000    -2.137000000    -7.152000000
H     1.434000000    -2.741000000    -8.521000000
O    -3.507000000    -0.544000000    -3.684000000
H    -2.583000000    -0.783000000    -3.623000000
H    -3.543000000     0.358000000    -3.365000000
O     1.492000000     4.160000000    -6.163000000
H     0.877000000     3.554000000    -6.574000000
H     1.179000000     4.245000000    -5.262000000
O    -1.971000000     3.124000000    -0.284000000
H    -1.249000000     2.709000000     0.189000000
H    -2.480000000     3.565000000     0.396000000
O    -4.885000000     2.086000000     2.829000000
H    -5.778000000     2.349000000     3.052000000
H    -4.904000000     1.129000000     2.850000000
O     3.092000000     0.267000000    -4.902000000
H     3.743000000     0.033000000    -4.240000000
H     2.319000000     0.523000000    -4.398000000
O    -5.005000000    -3.291000000     2.852000000
H    -4.534000000    -2.755000000     2.214000000
H    -5.327000000    -4.037000000     2.346000000
O     0.587000000     3.207000000     6.681000000
H     0.432000000     3.515000000     7.574000000
H    -0.283000000     2.978000000     6.352000000
O     3.172000000     6.153000000    -3.828000000
H     2.472000000     5.500000000    -3.792000000
H     3.048000000     6.589000000    -4.671000000
O    -3.505000000    -4.373000000    -3.279000000
H    -3.711000000    -4.567000000    -4.194000000
H    -2.731000000    -3.811000000    -3.323000000
O    -3.884000000    -2.205000000     0.629000000
H    -3.611000000    -1.432000000     0.134000000
H    -3.393000000    -2.927000000     0.235000000
O     1.556000000     4.679000000     1.511000000
H     1.649000000     5.560000000     1.872000000
H     0.830000000     4.294000000     2.002000000
O     2.938000000     1.062000000     4.621000000
H     3.804000000     1.451000000     4.740000000
H     3.009000000     0.194000000     5.017000000
O     3.992000000     3.254000000    -0.871000000
H     3.111000000     3.588000000    -1.041000000
H     4.406000000     3.932000000    -0.338000000
O    -0.537000000     2.601000000    -7.089000000
H    -0.795000000     1.743000000    -7.425000000
H    -0.372000000     3.125000000    -7.873000000
O     1.038000000    -0.236000000     8.296000000
H     0.894000000    -1.171000000     8.150000000
H     0.243000000     0.183000000     7.966000000
O     3.048000000    -1.303000000    -0.075000000
H     2.136000000    -1.049000000    -0.216000000
H     3.497000000    -0.482000000     0.129000000
O    -2.402000000    -2.466000000    -7.073000000
H    -2.249000000    -2.855000000    -6.212000000
H    -2.684000000    -3.199000000    -7.620000000
O    -5.440000000    -2.022000000    -2.262000000
H    -5.737000000    -2.794000000    -2.743000000
H    -4.678000000    -1.714000000    -2.751000000
O    -2.971000000     1.908000000    -2.994000000
H    -2.286000000     2.080000000    -3.640000000
H    -2.524000000     1.969000000    -2.150000000
O     3.674000000     3.266000000     2.667000000
H     3.472000000     2.333000000     2.595000000
H     2.845000000     3.706000000     2.478000000
O    -1.485000000    -4.297000000     0.277000000
H    -0.552000000    -4.440000000     0.121000000
H    -1.822000000    -5.159000000     0.523000000
O     0.408000000    -5.695000000     2.860000000
H     0.006000000    -6.043000000     3.656000000
H     0.621000000    -4.787000000     3.076000000
O     4.896000000     0.900000000     0.541000000
H     5.607000000     1.403000000     0.938000000
H     4.477000000     1.514000000    -0.063000000
O    -1.422000000    -3.206000000    -4.565000000
H    -1.038000000    -4.004000000    -4.202000000
H    -0.912000000    -2.496000000    -4.175000000
O    -0.927000000     2.465000000    -4.521000000
H    -0.305000000     1.780000000    -4.276000000
H    -0.878000000     2.503000000    -5.476000000
O     1.676000000     0.680000000    -7.586000000
H     2.251000000     0.431000000    -6.863000000
H     1.380000000    -0.152000000    -7.955000000
O     1.610000000     4.892000000    -1.083000000
H     0.845000000     5.453000000    -1.215000000
H     1.611000000     4.706000000    -0.144000000
O     0.160000000    -0.032000000     5.071000000
H    -0.456000000     0.635000000     5.373000000
H     0.871000000     0.464000000     4.667000000
O     1.245000000     5.357000000     5.544000000
H     0.971000000     4.472000000     5.785000000
H     0.618000000     5.930000000     5.986000000
O     2.379000000    -5.008000000    -4.717000000
H     2.113000000    -5.280000000    -5.595000000
H     2.075000000    -4.104000000    -4.643000000
O    -1.224000000    -2.688000000     5.340000000
H    -0.512000000    -3.120000000     5.812000000
H    -0.980000000    -1.762000000     5.336000000
O     1.325000000    -3.030000000     3.827000000
H     1.951000000    -2.540000000     4.359000000
H     0.510000000    -2.531000000     3.896000000
O    -0.260000000    -5.199000000    -3.224000000
H     0.329000000    -4.953000000    -2.510000000
H     0.321000000    -5.517000000    -3.915000000
O    -3.571000000     4.301000000     1.541000000
H    -4.099000000     5.095000000     1.455000000
H    -4.203000000     3.614000000     1.753000000
O    -2.809000000     5.180000000    -1.954000000
H    -1.931000000     5.556000000    -1.888000000
H    -2.776000000     4.398000000    -1.404000000
O    -4.418000000    -0.877000000    -6.157000000
H    -3.725000000    -1.375000000    -6.592000000
H    -4.079000000    -0.714000000    -5.277000000
O    -3.887000000    -2.227000000     5.183000000
H    -3.064000000    -2.715000000     5.203000000
H    -4.370000000    -2.603000000     4.447000000
O    -1.632000000     0.143000000    -8.314000000
H    -1.718000000    -0.620000000    -7.742000000
H    -1.821000000    -0.192000000    -9.190000000
O     1.692000000    -5.192000000    -1.112000000
H     1.405000000    -5.992000000    -0.672000000
H     1.799000000    -4.555000000    -0.406000000
O     1.632000000    -3.696000000     1.108000000
H     2.287000000    -3.177000000     0.642000000
H     1.582000000    -3.296000000     1.977000000
O     1.099000000     4.082000000    -3.624000000
H     1.459000000     4.033000000    -2.739000000
H     0.470000000     3.362000000    -3.667000000
