158
-3037.79143
C     1.051000000    -0.411000000     1.002000000
H     1.822000000    -0.485000000     1.765000000
C     0.263000000     0.717000000     1.054000000
H     0.324000000     1.394000000     1.903000000
C    -0.678000000     1.004000000     0.055000000
H    -1.334000000     1.844000000     0.124000000
C    -0.809000000     0.129000000    -1.015000000
H    -1.669000000     0.243000000    -1.671000000
C    -0.064000000    -1.020000000    -1.062000000
H    -0.211000000    -1.756000000    -1.847000000
C     0.855000000    -1.258000000    -0.079000000
C     1.595000000    -2.541000000    -0.175000000
O     1.592000000    -3.217000000    -1.213000000
O     2.180000000    -3.000000000     0.794000000
O    -0.174000000    -1.293000000     6.841000000
H    -0.181000000    -0.642000000     6.140000000
H     0.737000000    -1.319000000     7.134000000
O    -0.270000000    -5.097000000    -2.041000000
H    -0.428000000    -5.921000000    -1.580000000
H     0.376000000    -4.641000000    -1.503000000
O     3.480000000    -5.538000000     0.530000000
H     2.902000000    -4.817000000     0.281000000
H     3.810000000    -5.878000000    -0.302000000
O     1.131000000    -2.236000000     3.377000000
H     1.576000000    -2.427000000     2.551000000
H     1.707000000    -2.600000000     4.049000000
O     4.177000000    -1.383000000    -5.843000000
H     3.573000000    -1.882000000    -6.393000000
H     3.780000000    -1.404000000    -4.972000000
O    -2.211000000    -6.097000000     2.202000000
H    -2.153000000    -7.029000000     1.990000000
H    -1.301000000    -5.807000000     2.259000000
O    -3.601000000     5.015000000    -0.151000000
H    -3.806000000     5.768000000    -0.704000000
H    -4.202000000     4.330000000    -0.445000000
O     2.223000000     0.003000000    -3.658000000
H     2.016000000     0.720000000    -3.059000000
H     2.039000000     0.357000000    -4.528000000
O    -3.644000000     0.649000000     1.739000000
H    -3.238000000     1.514000000     1.690000000
H    -3.547000000     0.288000000     0.857000000
O     2.883000000    -7.132000000    -2.155000000
H     2.178000000    -7.085000000    -2.800000000
H     2.788000000    -7.999000000    -1.760000000
O     1.350000000     2.359000000    -1.816000000
H     0.778000000     1.836000000    -1.254000000
H     0.836000000     3.140000000    -2.021000000
O    -1.452000000    -3.356000000     3.620000000
H    -1.799000000    -3.393000000     2.729000000
H    -0.652000000    -2.836000000     3.544000000
O     6.298000000    -2.100000000     2.682000000
H     5.439000000    -2.470000000     2.882000000
H     6.919000000    -2.696000000     3.100000000
O     0.962000000    -6.882000000    -4.018000000
H     0.387000000    -6.705000000    -3.274000000
H     0.533000000    -7.597000000    -4.488000000
O    -3.830000000    -2.899000000    -2.503000000
H    -4.578000000    -3.480000000    -2.645000000
H    -3.173000000    -3.453000000    -2.081000000
O     1.687000000    -4.400000000    -5.339000000
H     1.526000000    -3.615000000    -4.816000000
H     1.224000000    -5.097000000    -4.874000000
O    -4.512000000    -1.854000000     2.572000000
H    -4.143000000    -1.025000000     2.269000000
H    -4.664000000    -1.721000000     3.507000000
O    -0.906000000    -4.005000000    -4.412000000
H    -1.190000000    -3.118000000    -4.190000000
H    -0.589000000    -4.369000000    -3.586000000
O     1.237000000     4.603000000     3.758000000
H     1.142000000     4.468000000     2.815000000
H     0.492000000     4.140000000     4.142000000
O     4.501000000    -0.167000000    -1.502000000
H     4.163000000    -0.250000000    -2.394000000
H     4.671000000    -1.068000000    -1.226000000
O    -0.622000000    -0.021000000     4.211000000
H    -1.010000000     0.345000000     3.416000000
H     0.027000000    -0.649000000     3.893000000
O    -3.632000000    -1.823000000    -5.104000000
H    -3.619000000    -1.969000000    -4.158000000
H    -3.999000000    -0.944000000    -5.205000000
O    -5.850000000     1.204000000     3.182000000
H    -5.858000000     0.532000000     3.864000000
H    -5.029000000     1.058000000     2.712000000
O     7.158000000    -4.474000000    -0.647000000
H     6.828000000    -5.208000000    -0.129000000
H     6.374000000    -4.079000000    -1.029000000
O     5.070000000    -3.899000000    -3.165000000
H     4.142000000    -3.675000000    -3.224000000
H     5.462000000    -3.169000000    -2.684000000
O    -0.070000000     7.350000000    -1.603000000
H     0.518000000     7.988000000    -1.197000000
H    -0.491000000     6.910000000    -0.865000000
O    -0.389000000     2.635000000     5.211000000
H    -0.433000000     1.752000000     4.845000000
H     0.283000000     2.580000000     5.890000000
O     2.172000000    -3.850000000     5.277000000
H     1.831000000    -4.241000000     6.081000000
H     3.080000000    -3.629000000     5.484000000
O    -0.879000000     5.858000000     0.722000000
H    -0.520000000     5.044000000     1.074000000
H    -1.701000000     5.597000000     0.306000000
O    -4.810000000     2.503000000    -0.864000000
H    -4.486000000     1.618000000    -1.031000000
H    -5.559000000     2.377000000    -0.281000000
O     0.631000000     3.403000000    -4.641000000
H     1.452000000     3.031000000    -4.964000000
H     0.898000000     4.005000000    -3.946000000
O    -1.540000000     1.828000000    -4.061000000
H    -1.613000000     1.230000000    -4.805000000
H    -0.835000000     2.428000000    -4.304000000
O    -3.309000000    -5.005000000    -0.296000000
H    -4.202000000    -4.818000000    -0.008000000
H    -2.959000000    -5.594000000     0.372000000
O     1.106000000     5.043000000    -2.466000000
H     1.928000000     5.193000000    -1.999000000
H     0.605000000     5.847000000    -2.333000000
O    -4.692000000    -0.467000000    -0.735000000
H    -5.603000000    -0.687000000    -0.538000000
H    -4.259000000    -1.314000000    -0.840000000
O     4.030000000    -3.818000000     2.931000000
H     3.312000000    -3.879000000     2.301000000
H     4.278000000    -4.727000000     3.101000000
O     2.613000000    -2.524000000    -3.423000000
H     2.448000000    -1.581000000    -3.399000000
H     2.394000000    -2.828000000    -2.542000000
O     1.267000000     4.069000000     0.768000000
H     1.713000000     3.258000000     0.526000000
H     1.617000000     4.724000000     0.164000000
O    -4.587000000     0.687000000    -5.750000000
H    -4.671000000     1.264000000    -4.991000000
H    -4.088000000     1.200000000    -6.386000000
O     5.820000000     1.657000000     0.290000000
H     5.093000000     1.185000000    -0.115000000
H     6.550000000     1.038000000     0.265000000
O    -2.425000000     7.569000000     2.393000000
H    -2.922000000     8.259000000     1.952000000
H    -1.980000000     7.105000000     1.684000000
O    -3.841000000     4.988000000     3.586000000
H    -3.868000000     5.749000000     3.005000000
H    -4.717000000     4.949000000     3.970000000
O    -4.303000000     2.518000000    -3.945000000
H    -3.350000000     2.462000000    -3.874000000
H    -4.620000000     2.341000000    -3.059000000
O    -2.797000000     3.316000000     1.817000000
H    -3.207000000     3.705000000     1.044000000
H    -3.044000000     3.896000000     2.537000000
O     2.080000000    -7.632000000     1.665000000
H     1.719000000    -6.750000000     1.576000000
H     2.869000000    -7.624000000     1.123000000
O     5.046000000    -2.536000000     0.208000000
H     4.225000000    -2.642000000     0.689000000
H     5.687000000    -2.300000000     0.879000000
O    -1.598000000    -2.550000000     1.075000000
H    -0.835000000    -1.993000000     0.916000000
H    -1.985000000    -2.678000000     0.209000000
O     0.326000000    -4.887000000     1.909000000
H     0.911000000    -4.335000000     1.391000000
H    -0.224000000    -4.268000000     2.390000000
