158
-3042.27561
C    -0.001000000    -1.338000000     0.641000000
H     0.114000000    -2.260000000     1.204000000
C     0.397000000    -0.184000000     1.262000000
H     0.701000000    -0.102000000     2.302000000
C     0.381000000     1.018000000     0.604000000
H     0.587000000     1.982000000     1.107000000
C    -0.114000000     1.055000000    -0.711000000
H    -0.237000000     1.994000000    -1.245000000
C    -0.526000000    -0.128000000    -1.307000000
H    -0.952000000    -0.063000000    -2.305000000
C    -0.449000000    -1.345000000    -0.702000000
C    -0.777000000    -2.616000000    -1.405000000
O    -1.058000000    -2.640000000    -2.593000000
O    -0.736000000    -3.693000000    -0.919000000
O     3.001000000     4.223000000     1.303000000
H     2.384000000     4.617000000     1.920000000
H     2.751000000     4.582000000     0.452000000
O    -4.865000000    -4.846000000    -4.928000000
H    -4.956000000    -5.558000000    -5.561000000
H    -3.920000000    -4.723000000    -4.840000000
O     2.655000000    -6.035000000     0.779000000
H     2.468000000    -5.572000000    -0.037000000
H     3.181000000    -6.789000000     0.512000000
O    -5.825000000    -4.828000000    -2.521000000
H    -5.628000000    -4.933000000    -3.451000000
H    -5.045000000    -4.412000000    -2.156000000
O     0.188000000    -6.160000000     1.871000000
H     0.252000000    -6.246000000     2.822000000
H     1.091000000    -6.037000000     1.580000000
O     2.152000000    -3.356000000    -4.336000000
H     1.578000000    -3.522000000    -5.084000000
H     2.145000000    -2.404000000    -4.235000000
O     2.864000000     5.979000000     3.511000000
H     3.333000000     5.980000000     4.346000000
H     3.502000000     6.305000000     2.877000000
O    -2.062000000    -5.885000000    -1.389000000
H    -1.516000000    -5.123000000    -1.194000000
H    -2.631000000    -5.595000000    -2.102000000
O    -4.399000000     3.145000000     2.420000000
H    -5.227000000     3.274000000     1.957000000
H    -3.826000000     2.730000000     1.776000000
O    -0.444000000     5.229000000    -0.787000000
H    -1.008000000     5.996000000    -0.688000000
H    -0.971000000     4.500000000    -0.459000000
O    -1.579000000     1.495000000     4.927000000
H    -1.137000000     0.693000000     5.206000000
H    -2.050000000     1.245000000     4.133000000
O     5.104000000     2.067000000     3.813000000
H     4.901000000     2.525000000     2.998000000
H     5.896000000     1.566000000     3.615000000
O     5.271000000     4.239000000    -2.311000000
H     6.126000000     4.540000000    -2.616000000
H     5.455000000     3.791000000    -1.486000000
O    -3.838000000    -3.032000000    -1.741000000
H    -3.888000000    -2.597000000    -0.890000000
H    -2.900000000    -3.117000000    -1.912000000
O     2.200000000     5.204000000    -0.982000000
H     2.408000000     6.114000000    -1.194000000
H     1.245000000     5.160000000    -1.028000000
O     0.407000000    -6.372000000    -3.256000000
H     0.353000000    -6.671000000    -2.348000000
H    -0.294000000    -5.726000000    -3.338000000
O     3.719000000    -0.282000000     0.961000000
H     3.200000000     0.228000000     0.339000000
H     3.775000000    -1.153000000     0.569000000
O     1.181000000     4.221000000     5.558000000
H     2.038000000     4.017000000     5.935000000
H     1.235000000     3.906000000     4.656000000
O    -2.880000000     1.125000000    -5.505000000
H    -3.609000000     0.507000000    -5.560000000
H    -2.177000000     0.629000000    -5.087000000
O     2.639000000    -0.802000000     3.916000000
H     2.980000000    -0.491000000     3.078000000
H     3.410000000    -0.861000000     4.481000000
O    -4.418000000    -0.874000000    -4.041000000
H    -3.602000000    -1.349000000    -3.881000000
H    -4.915000000    -1.443000000    -4.629000000
O     3.751000000     0.929000000     6.143000000
H     4.008000000     1.171000000     5.254000000
H     4.197000000     0.097000000     6.304000000
O     1.795000000    -4.443000000    -1.715000000
H     1.659000000    -3.920000000    -2.506000000
H     0.912000000    -4.632000000    -1.398000000
O    -1.213000000     3.389000000    -4.280000000
H    -0.658000000     4.090000000    -4.622000000
H    -1.740000000     3.113000000    -5.030000000
O    -1.990000000    -3.865000000     1.498000000
H    -2.687000000    -4.446000000     1.192000000
H    -1.278000000    -3.994000000     0.871000000
O    -2.204000000     3.630000000     0.372000000
H    -2.165000000     2.676000000     0.440000000
H    -2.982000000     3.800000000    -0.160000000
O    -3.270000000    -0.077000000     3.488000000
H    -3.260000000     0.020000000     2.536000000
H    -3.803000000    -0.856000000     3.644000000
O    -2.822000000     0.840000000     0.609000000
H    -3.127000000     0.686000000    -0.286000000
H    -1.935000000     0.481000000     0.624000000
O     3.323000000    -2.705000000    -0.400000000
H     3.037000000    -3.529000000    -0.794000000
H     2.924000000    -2.027000000    -0.946000000
O     0.231000000     0.811000000     7.241000000
H     0.985000000     1.103000000     6.728000000
H    -0.040000000    -0.007000000     6.824000000
O     4.595000000     1.401000000    -2.732000000
H     4.740000000     1.577000000    -3.662000000
H     4.294000000     2.237000000    -2.375000000
O    -1.703000000    -4.709000000    -4.143000000
H    -1.218000000    -4.582000000    -4.958000000
H    -1.393000000    -4.010000000    -3.568000000
O    -4.600000000     1.016000000    -2.010000000
H    -4.361000000     1.934000000    -2.141000000
H    -4.666000000     0.657000000    -2.895000000
O    -4.502000000    -2.072000000     0.804000000
H    -3.969000000    -2.805000000     1.112000000
H    -5.045000000    -1.838000000     1.557000000
O    -1.884000000     4.174000000     5.660000000
H    -0.954000000     4.398000000     5.630000000
H    -1.901000000     3.218000000     5.605000000
O     2.983000000     4.354000000    -3.408000000
H     3.862000000     4.363000000    -3.029000000
H     2.436000000     4.791000000    -2.755000000
O     2.550000000    -0.366000000    -1.765000000
H     3.123000000    -0.042000000    -2.460000000
H     1.824000000     0.257000000    -1.743000000
O    -1.367000000    -3.002000000     4.050000000
H    -1.665000000    -3.018000000     3.140000000
H    -1.136000000    -3.911000000     4.241000000
O     5.897000000     4.858000000     1.746000000
H     5.102000000     4.556000000     1.306000000
H     6.590000000     4.740000000     1.097000000
O     1.060000000     1.987000000    -3.783000000
H     0.226000000     2.450000000    -3.711000000
H     1.723000000     2.674000000    -3.707000000
O     0.009000000    -4.299000000    -6.521000000
H     0.464000000    -3.707000000    -7.120000000
H    -0.646000000    -4.735000000    -7.066000000
O     0.151000000    -0.951000000     5.164000000
H     0.918000000    -0.591000000     4.719000000
H    -0.215000000    -1.578000000     4.540000000
O    -3.383000000     3.580000000    -2.343000000
H    -2.652000000     3.320000000    -2.904000000
H    -3.421000000     4.533000000    -2.426000000
O    -1.701000000    -1.201000000    -4.699000000
H    -1.198000000    -1.663000000    -5.370000000
H    -1.351000000    -1.527000000    -3.870000000
O    -1.704000000    -7.619000000     0.772000000
H    -1.951000000    -7.124000000    -0.010000000
H    -0.991000000    -7.112000000     1.160000000
O     5.344000000    -2.706000000     1.378000000
H     4.709000000    -2.707000000     0.662000000
H     5.925000000    -3.441000000     1.184000000
O     3.345000000    -6.518000000    -3.153000000
H     2.995000000    -5.648000000    -2.964000000
H     2.573000000    -7.051000000    -3.342000000
O     1.815000000    -0.395000000    -4.636000000
H     1.498000000     0.479000000    -4.408000000
H     1.997000000    -0.346000000    -5.575000000
