158
-3039.67712
C     1.011000000    -0.525000000     0.947000000
H     1.718000000    -0.853000000     1.705000000
C     0.392000000     0.743000000     1.019000000
H     0.603000000     1.403000000     1.857000000
C    -0.456000000     1.122000000     0.027000000
H    -0.970000000     2.130000000     0.064000000
C    -0.777000000     0.298000000    -0.998000000
H    -1.427000000     0.692000000    -1.775000000
C    -0.135000000    -0.979000000    -1.129000000
H    -0.275000000    -1.647000000    -1.976000000
C     0.690000000    -1.387000000    -0.106000000
C     1.129000000    -2.801000000    -0.029000000
O     1.175000000    -3.531000000    -1.029000000
O     1.363000000    -3.345000000     1.056000000
O    -1.202000000     7.710000000    -0.372000000
H    -0.907000000     8.413000000     0.207000000
H    -0.800000000     7.911000000    -1.217000000
O     3.873000000    -1.604000000    -4.354000000
H     3.676000000    -0.744000000    -3.985000000
H     3.515000000    -1.572000000    -5.241000000
O    -2.879000000     3.907000000    -2.076000000
H    -3.148000000     4.701000000    -1.614000000
H    -3.310000000     3.968000000    -2.928000000
O    -1.984000000    -7.102000000     2.052000000
H    -2.196000000    -7.761000000     1.391000000
H    -1.955000000    -6.278000000     1.567000000
O    -2.775000000     0.045000000    -6.159000000
H    -2.892000000    -0.517000000    -6.925000000
H    -1.895000000    -0.162000000    -5.842000000
O     5.351000000    -2.236000000     2.467000000
H     4.579000000    -2.689000000     2.806000000
H     6.092000000    -2.749000000     2.790000000
O    -2.390000000    -7.131000000    -0.997000000
H    -2.334000000    -7.689000000    -1.773000000
H    -1.554000000    -6.667000000    -0.976000000
O     2.306000000    -5.555000000     1.546000000
H     1.871000000    -4.815000000     1.123000000
H     3.133000000    -5.648000000     1.073000000
O    -3.850000000    -4.174000000     2.506000000
H    -3.738000000    -3.646000000     3.297000000
H    -3.025000000    -4.072000000     2.031000000
O    -5.149000000     0.607000000     3.189000000
H    -5.713000000    -0.054000000     2.787000000
H    -4.260000000     0.333000000     2.965000000
O    -1.070000000     5.240000000     1.066000000
H    -0.473000000     5.221000000     1.814000000
H    -1.331000000     6.157000000     0.991000000
O     3.262000000     5.350000000     1.024000000
H     2.838000000     4.494000000     1.082000000
H     2.547000000     5.960000000     0.845000000
O     0.432000000    -6.233000000    -1.956000000
H     0.650000000    -5.369000000    -1.607000000
H     1.180000000    -6.782000000    -1.721000000
O     0.320000000     5.621000000     3.446000000
H    -0.086000000     4.986000000     4.037000000
H     0.162000000     6.469000000     3.860000000
O    -4.961000000     2.746000000     4.503000000
H    -4.981000000     2.039000000     3.858000000
H    -4.565000000     3.483000000     4.039000000
O    -1.262000000    -4.754000000     0.731000000
H    -1.623000000    -4.192000000     0.045000000
H    -0.326000000    -4.798000000     0.537000000
O    -2.209000000    -4.714000000    -3.942000000
H    -2.666000000    -4.057000000    -3.416000000
H    -2.779000000    -5.483000000    -3.911000000
O     6.025000000     0.234000000     2.418000000
H     5.687000000    -0.660000000     2.465000000
H     6.591000000     0.235000000     1.646000000
O    -0.625000000    -1.301000000    -4.665000000
H    -0.332000000    -1.313000000    -5.576000000
H     0.129000000    -1.617000000    -4.167000000
O    -3.519000000     1.008000000    -2.797000000
H    -3.461000000     1.298000000    -3.707000000
H    -3.482000000     1.816000000    -2.285000000
O     1.041000000    -3.028000000    -6.403000000
H     0.123000000    -3.118000000    -6.656000000
H     1.032000000    -3.074000000    -5.447000000
O     5.881000000    -3.007000000    -0.093000000
H     5.692000000    -2.704000000     0.795000000
H     5.031000000    -3.005000000    -0.534000000
O    -2.915000000    -1.714000000    -3.233000000
H    -2.169000000    -1.551000000    -3.810000000
H    -3.351000000    -0.866000000    -3.158000000
O     3.787000000    -5.989000000    -0.607000000
H     3.839000000    -5.113000000    -0.989000000
H     4.168000000    -6.564000000    -1.271000000
O    -0.779000000    -2.576000000     4.027000000
H     0.009000000    -2.888000000     3.582000000
H    -0.868000000    -3.151000000     4.787000000
O    -2.991000000     3.415000000     2.165000000
H    -2.388000000     3.961000000     1.660000000
H    -3.533000000     2.982000000     1.506000000
O    -2.565000000    -0.543000000     3.052000000
H    -2.642000000    -0.577000000     2.099000000
H    -2.081000000    -1.336000000     3.282000000
O    -0.991000000     1.986000000     4.581000000
H    -1.389000000     2.000000000     3.711000000
H    -0.879000000     2.909000000     4.808000000
O     3.705000000    -3.790000000    -1.812000000
H     2.807000000    -3.598000000    -1.542000000
H     3.848000000    -3.237000000    -2.580000000
O    -4.814000000     2.248000000     0.589000000
H    -5.436000000     2.756000000     0.068000000
H    -5.346000000     1.849000000     1.277000000
O    -5.238000000    -2.210000000    -0.244000000
H    -5.610000000    -1.772000000    -1.010000000
H    -4.445000000    -1.712000000    -0.045000000
O     3.842000000     1.339000000     5.768000000
H     4.184000000     1.957000000     5.123000000
H     3.847000000     0.495000000     5.318000000
O     3.933000000     2.038000000     1.365000000
H     4.296000000     1.309000000     1.868000000
H     4.437000000     2.800000000     1.650000000
O     5.524000000     0.790000000    -0.858000000
H     5.749000000     1.113000000    -1.731000000
H     4.663000000     1.168000000    -0.678000000
O    -0.282000000     5.113000000    -2.166000000
H    -0.835000000     4.340000000    -2.287000000
H    -0.465000000     5.401000000    -1.272000000
O     2.991000000    -3.149000000     3.345000000
H     2.671000000    -3.426000000     2.487000000
H     2.777000000    -3.877000000     3.928000000
O     0.605000000    -6.989000000     3.103000000
H     1.105000000    -6.598000000     2.386000000
H    -0.311000000    -6.865000000     2.851000000
O     2.588000000     1.651000000    -1.048000000
H     1.695000000     1.312000000    -0.985000000
H     2.870000000     1.753000000    -0.139000000
O     0.929000000     5.426000000    -4.531000000
H     0.472000000     5.269000000    -3.705000000
H     1.434000000     6.224000000    -4.377000000
O    -3.643000000     6.778000000    -1.353000000
H    -4.342000000     7.238000000    -0.889000000
H    -2.837000000     7.087000000    -0.939000000
O    -4.633000000     5.481000000     3.592000000
H    -4.341000000     5.041000000     2.793000000
H    -5.516000000     5.788000000     3.387000000
O    -3.449000000    -0.184000000     0.399000000
H    -2.635000000    -0.189000000    -0.106000000
H    -3.750000000     0.723000000     0.360000000
O     0.710000000    -3.525000000    -3.569000000
H    -0.075000000    -4.070000000    -3.627000000
H     0.967000000    -3.572000000    -2.648000000
O     0.871000000    -0.031000000     4.537000000
H     0.204000000    -0.707000000     4.416000000
H     0.385000000     0.793000000     4.517000000
O     1.475000000    -5.180000000     4.985000000
H     0.785000000    -5.355000000     5.625000000
H     1.235000000    -5.707000000     4.223000000
O     2.083000000    -6.623000000    -4.371000000
H     1.467000000    -6.202000000    -3.772000000
H     1.531000000    -7.136000000    -4.961000000
O     3.311000000     1.127000000    -3.545000000
H     3.190000000     1.677000000    -2.771000000
H     2.767000000     1.537000000    -4.217000000
O     3.141000000    -1.184000000     5.244000000
H     2.352000000    -0.645000000     5.297000000
H     3.080000000    -1.613000000     4.390000000
