158
-3007.19358
C     1.307000000    -0.442000000    -0.601000000
H     2.327000000    -0.675000000    -0.894000000
C     1.052000000     0.817000000    -0.059000000
H     1.846000000     1.559000000    -0.028000000
C    -0.205000000     1.089000000     0.477000000
H    -0.466000000     2.097000000     0.942000000
C    -1.190000000     0.151000000     0.521000000
H    -2.181000000     0.374000000     0.909000000
C    -0.956000000    -1.099000000    -0.079000000
H    -1.741000000    -1.849000000    -0.036000000
C     0.299000000    -1.408000000    -0.661000000
C     0.539000000    -2.789000000    -1.301000000
O    -0.247000000    -3.664000000    -1.242000000
O     1.625000000    -3.062000000    -1.760000000
O    -0.959000000    -6.065000000    -1.594000000
H    -0.952000000    -5.139000000    -1.352000000
H    -1.705000000    -6.153000000    -2.187000000
O    -4.740000000     3.574000000    -1.299000000
H    -4.520000000     2.642000000    -1.297000000
H    -3.980000000     3.999000000    -1.696000000
O     5.490000000    -3.552000000    -0.865000000
H     6.427000000    -3.740000000    -0.911000000
H     5.408000000    -2.914000000    -0.157000000
O    -2.940000000    -5.383000000     3.525000000
H    -2.951000000    -5.268000000     4.476000000
H    -2.769000000    -4.506000000     3.180000000
O    -0.865000000    -8.736000000    -2.268000000
H    -0.450000000    -8.784000000    -3.129000000
H    -0.633000000    -7.868000000    -1.938000000
O    -2.298000000     6.848000000     0.740000000
H    -1.442000000     6.600000000     1.089000000
H    -2.309000000     6.489000000    -0.147000000
O    -4.187000000    -1.881000000     0.675000000
H    -5.033000000    -2.100000000     1.065000000
H    -4.327000000    -1.027000000     0.265000000
O    -1.586000000     3.583000000     3.567000000
H    -2.471000000     3.946000000     3.540000000
H    -1.018000000     4.319000000     3.340000000
O     0.777000000    -3.936000000    -6.425000000
H     1.407000000    -4.329000000    -7.029000000
H     1.314000000    -3.588000000    -5.713000000
O     3.153000000    -4.963000000    -0.885000000
H     2.727000000    -4.190000000    -1.254000000
H     4.084000000    -4.741000000    -0.875000000
O    -0.004000000     5.870000000     2.174000000
H     0.281000000     6.539000000     2.796000000
H     0.761000000     5.718000000     1.619000000
O    -2.625000000    -3.154000000    -6.240000000
H    -2.027000000    -3.058000000    -5.498000000
H    -3.038000000    -4.006000000    -6.105000000
O    -5.651000000    -0.167000000     4.075000000
H    -6.120000000    -0.748000000     3.477000000
H    -5.134000000    -0.755000000     4.625000000
O     2.686000000     7.239000000     0.611000000
H     2.056000000     6.942000000    -0.046000000
H     2.146000000     7.553000000     1.336000000
O    -1.060000000    -3.238000000    -4.058000000
H    -1.041000000    -3.246000000    -3.101000000
H    -0.430000000    -3.911000000    -4.316000000
O     2.590000000     3.793000000     5.520000000
H     1.825000000     3.662000000     6.081000000
H     3.180000000     4.337000000     6.042000000
O    -3.242000000    -4.233000000    -0.610000000
H    -2.386000000    -4.257000000    -0.182000000
H    -3.612000000    -3.387000000    -0.357000000
O    -3.604000000     6.279000000     3.317000000
H    -3.485000000     6.365000000     2.371000000
H    -4.006000000     7.106000000     3.584000000
O     0.629000000    -4.158000000     1.721000000
H    -0.239000000    -3.840000000     1.969000000
H     0.565000000    -4.318000000     0.779000000
O     0.508000000    -0.888000000    -5.363000000
H     0.148000000    -0.525000000    -6.172000000
H    -0.055000000    -1.636000000    -5.164000000
O     3.956000000     1.905000000     4.256000000
H     3.412000000     1.158000000     4.504000000
H     3.439000000     2.671000000     4.505000000
O     2.614000000     4.838000000    -2.647000000
H     3.407000000     4.502000000    -2.230000000
H     2.917000000     5.573000000    -3.180000000
O     5.483000000     5.179000000     0.528000000
H     5.546000000     4.769000000     1.391000000
H     5.335000000     4.448000000    -0.073000000
O     3.004000000     0.198000000    -4.821000000
H     2.179000000    -0.163000000    -5.144000000
H     3.249000000     0.856000000    -5.472000000
O     4.182000000    -5.442000000    -4.676000000
H     3.606000000    -6.192000000    -4.532000000
H     3.625000000    -4.679000000    -4.525000000
O    -4.523000000     0.424000000    -0.400000000
H    -5.285000000     0.531000000    -0.969000000
H    -3.777000000     0.651000000    -0.954000000
O    -2.574000000     1.096000000    -2.004000000
H    -2.213000000     1.540000000    -2.772000000
H    -1.824000000     0.980000000    -1.420000000
O     6.303000000    -0.081000000    -2.069000000
H     7.254000000    -0.186000000    -2.094000000
H     5.971000000    -0.753000000    -2.665000000
O     1.601000000    -3.011000000     4.144000000
H     1.521000000    -3.380000000     3.264000000
H     0.856000000    -2.415000000     4.223000000
O     2.019000000     6.074000000     4.367000000
H     2.316000000     6.005000000     3.460000000
H     2.171000000     5.204000000     4.736000000
O    -0.155000000    -0.672000000     3.380000000
H    -0.841000000    -0.186000000     3.838000000
H    -0.184000000    -0.340000000     2.483000000
O    -4.103000000    -1.245000000    -3.362000000
H    -4.064000000    -0.990000000    -4.283000000
H    -3.432000000    -0.712000000    -2.936000000
O    -2.126000000    -2.945000000     2.166000000
H    -2.808000000    -2.669000000     1.554000000
H    -1.979000000    -2.179000000     2.721000000
O     5.224000000    -2.349000000    -3.360000000
H     5.198000000    -2.861000000    -2.551000000
H     4.323000000    -2.365000000    -3.682000000
O    -5.889000000     1.378000000     1.911000000
H    -5.499000000     0.794000000     1.261000000
H    -5.513000000     1.093000000     2.744000000
O     2.661000000     4.315000000     2.042000000
H     3.430000000     4.467000000     1.493000000
H     2.897000000     3.561000000     2.582000000
O     1.886000000    -6.339000000     3.141000000
H     1.729000000    -5.659000000     2.486000000
H     1.011000000    -6.635000000     3.394000000
O     3.619000000     1.164000000    -2.331000000
H     3.359000000     0.896000000    -3.212000000
H     4.428000000     0.681000000    -2.162000000
O    -2.640000000     4.733000000    -2.121000000
H    -2.718000000     4.553000000    -3.058000000
H    -1.779000000     5.140000000    -2.027000000
O     4.925000000     3.647000000    -1.817000000
H     4.468000000     2.826000000    -1.999000000
H     5.590000000     3.708000000    -2.503000000
O    -5.611000000     3.850000000     1.269000000
H    -5.731000000     2.904000000     1.350000000
H    -5.316000000     3.977000000     0.367000000
O    -2.127000000     1.136000000     4.622000000
H    -1.919000000     1.927000000     4.124000000
H    -2.985000000     1.314000000     5.006000000
O     2.275000000    -2.859000000    -4.392000000
H     2.107000000    -1.926000000    -4.526000000
H     2.143000000    -2.994000000    -3.453000000
O     5.700000000    -2.024000000     1.593000000
H     4.919000000    -2.464000000     1.930000000
H     5.695000000    -1.167000000     2.020000000
O    -5.885000000    -3.177000000    -3.056000000
H    -5.143000000    -2.597000000    -2.887000000
H    -6.545000000    -2.611000000    -3.456000000
O     1.490000000    -7.054000000    -0.730000000
H     2.067000000    -6.331000000    -0.484000000
H     0.724000000    -6.629000000    -1.114000000
O     2.505000000    -7.710000000    -3.331000000
H     2.230000000    -7.467000000    -2.447000000
H     1.749000000    -8.167000000    -3.701000000
O     0.100000000     5.681000000    -1.501000000
H     0.300000000     6.412000000    -2.085000000
H     0.699000000     4.986000000    -1.773000000
