158
-3058.63991
C     0.974000000    -0.296000000    -1.121000000
H     1.784000000    -0.431000000    -1.833000000
C     0.409000000     0.954000000    -0.840000000
H     0.654000000     1.815000000    -1.457000000
C    -0.389000000     1.145000000     0.243000000
H    -0.804000000     2.121000000     0.501000000
C    -0.747000000     0.002000000     1.008000000
H    -1.457000000     0.139000000     1.820000000
C    -0.388000000    -1.248000000     0.547000000
H    -0.835000000    -2.036000000     1.149000000
C     0.543000000    -1.425000000    -0.435000000
C     1.096000000    -2.785000000    -0.635000000
O     0.424000000    -3.803000000    -0.244000000
O     2.139000000    -2.944000000    -1.198000000
O     1.656000000     5.247000000     3.392000000
H     1.206000000     5.652000000     4.133000000
H     1.695000000     4.317000000     3.615000000
O    -2.517000000    -4.427000000    -3.052000000
H    -2.856000000    -3.645000000    -2.616000000
H    -2.116000000    -4.098000000    -3.856000000
O    -2.105000000     7.232000000     0.012000000
H    -1.958000000     7.372000000    -0.923000000
H    -2.720000000     6.499000000     0.050000000
O     4.760000000    -0.440000000    -1.405000000
H     4.925000000    -0.863000000    -0.562000000
H     4.444000000    -1.146000000    -1.969000000
O    -5.670000000     6.137000000    -0.715000000
H    -5.727000000     7.072000000    -0.522000000
H    -5.018000000     5.804000000    -0.098000000
O     2.646000000     6.690000000    -0.494000000
H     1.875000000     6.257000000    -0.129000000
H     2.547000000     7.608000000    -0.242000000
O     2.286000000     0.668000000     1.928000000
H     1.579000000     0.757000000     1.289000000
H     2.778000000     1.486000000     1.858000000
O    -0.851000000     2.597000000     3.755000000
H    -1.684000000     2.290000000     4.112000000
H    -0.224000000     1.911000000     3.987000000
O     3.715000000    -2.637000000    -3.215000000
H     3.399000000    -2.821000000    -2.330000000
H     3.792000000    -3.499000000    -3.625000000
O    -3.065000000    -1.913000000    -0.957000000
H    -2.175000000    -1.568000000    -0.892000000
H    -3.215000000    -2.350000000    -0.119000000
O    -1.583000000     5.212000000     2.569000000
H    -2.046000000     5.894000000     3.056000000
H    -1.394000000     4.538000000     3.222000000
O     0.124000000     2.986000000    -3.855000000
H     0.845000000     2.684000000    -4.408000000
H    -0.310000000     3.662000000    -4.376000000
O     0.966000000    -5.393000000    -2.620000000
H     0.970000000    -4.691000000    -1.969000000
H     0.197000000    -5.919000000    -2.402000000
O    -3.733000000     5.036000000     0.782000000
H    -2.981000000     5.090000000     1.373000000
H    -3.414000000     4.529000000     0.036000000
O    -2.161000000    -4.397000000     0.495000000
H    -2.492000000    -5.012000000    -0.159000000
H    -1.315000000    -4.113000000     0.150000000
O     0.442000000    -0.763000000    -4.720000000
H     0.420000000    -0.072000000    -5.382000000
H     0.572000000    -0.299000000    -3.893000000
O    -2.584000000     4.058000000    -1.393000000
H    -3.015000000     3.218000000    -1.552000000
H    -2.546000000     4.474000000    -2.254000000
O     2.035000000    -8.057000000    -1.309000000
H     1.188000000    -7.698000000    -1.573000000
H     1.958000000    -8.997000000    -1.471000000
O     3.636000000     3.147000000     1.444000000
H     4.161000000     2.823000000     0.712000000
H     2.866000000     3.538000000     1.032000000
O     1.710000000     2.063000000    -5.669000000
H     2.284000000     1.308000000    -5.798000000
H     2.277000000     2.732000000    -5.285000000
O    -4.258000000    -1.098000000    -3.261000000
H    -3.748000000    -1.201000000    -2.457000000
H    -3.602000000    -0.991000000    -3.949000000
O    -2.915000000     4.255000000    -4.225000000
H    -3.044000000     4.934000000    -4.887000000
H    -2.890000000     3.437000000    -4.722000000
O     4.796000000     2.425000000    -1.049000000
H     4.710000000     1.564000000    -1.457000000
H     5.727000000     2.500000000    -0.841000000
O     0.619000000    -2.934000000     4.880000000
H     0.363000000    -2.733000000     5.780000000
H    -0.194000000    -3.209000000     4.456000000
O    -1.852000000     1.311000000    -3.109000000
H    -2.071000000     1.367000000    -2.179000000
H    -1.213000000     2.010000000    -3.247000000
O     0.236000000     4.958000000    -1.910000000
H     0.092000000     4.735000000    -0.990000000
H     0.351000000     4.114000000    -2.346000000
O    -5.902000000     5.154000000     2.694000000
H    -5.168000000     4.989000000     2.103000000
H    -5.719000000     6.015000000     3.070000000
O     5.810000000    -2.678000000    -0.083000000
H     5.181000000    -3.337000000     0.213000000
H     6.207000000    -2.347000000     0.723000000
O    -1.487000000    -0.150000000     4.528000000
H    -1.548000000    -0.901000000     3.938000000
H    -0.547000000     0.000000000     4.629000000
O     1.007000000     0.454000000     4.115000000
H     1.198000000     0.560000000     3.183000000
H     1.721000000    -0.090000000     4.445000000
O    -1.105000000    -7.872000000     0.507000000
H    -1.342000000    -7.795000000    -0.417000000
H    -1.919000000    -8.128000000     0.942000000
O    -2.119000000    -2.846000000     3.228000000
H    -2.179000000    -3.261000000     2.368000000
H    -3.028000000    -2.759000000     3.516000000
O     3.479000000    -2.502000000    -6.398000000
H     3.467000000    -1.734000000    -5.828000000
H     2.649000000    -2.945000000    -6.221000000
O     0.975000000     4.392000000     0.799000000
H     0.075000000     4.350000000     1.122000000
H     1.441000000     4.911000000     1.455000000
O     4.149000000    -1.371000000     2.299000000
H     3.712000000    -0.563000000     2.030000000
H     3.447000000    -1.916000000     2.655000000
O     0.842000000    -5.846000000     1.392000000
H     0.734000000    -5.137000000     0.757000000
H     0.020000000    -6.335000000     1.346000000
O     4.005000000    -0.288000000    -4.854000000
H     4.680000000     0.235000000    -4.421000000
H     3.696000000    -0.889000000    -4.175000000
O     3.600000000     3.433000000    -4.560000000
H     3.941000000     3.224000000    -3.690000000
H     4.293000000     3.951000000    -4.970000000
O    -4.765000000     2.241000000    -0.947000000
H    -5.226000000     1.531000000    -1.394000000
H    -5.457000000     2.846000000    -0.680000000
O    -3.991000000    -0.298000000     5.715000000
H    -4.554000000     0.096000000     5.048000000
H    -3.106000000    -0.213000000     5.361000000
O     0.848000000    -3.269000000    -4.992000000
H     1.245000000    -3.604000000    -4.187000000
H     0.726000000    -2.334000000    -4.827000000
O     3.813000000    -4.329000000     0.437000000
H     3.257000000    -4.081000000    -0.301000000
H     3.308000000    -4.080000000     1.212000000
O     4.427000000    -6.952000000    -0.302000000
H     3.735000000    -7.127000000    -0.939000000
H     4.388000000    -6.006000000    -0.160000000
O     3.289000000    -5.109000000    -3.844000000
H     3.209000000    -5.655000000    -4.626000000
H     2.562000000    -5.384000000    -3.285000000
O    -4.671000000     3.668000000     5.013000000
H    -5.379000000     4.256000000     5.275000000
H    -4.428000000     3.962000000     4.135000000
O    -0.997000000     7.383000000    -2.396000000
H    -0.443000000     8.067000000    -2.772000000
H    -0.469000000     6.587000000    -2.456000000
O    -4.389000000    -2.809000000     1.177000000
H    -5.345000000    -2.824000000     1.133000000
H    -4.120000000    -3.668000000     0.853000000
O     2.316000000    -3.778000000     2.695000000
H     1.921000000    -4.602000000     2.409000000
H     1.903000000    -3.596000000     3.539000000
