158
-3002.21286
C     0.567000000    -0.327000000    -1.411000000
H     0.902000000    -0.347000000    -2.445000000
C    -0.352000000     0.729000000    -1.090000000
H    -0.844000000     1.342000000    -1.841000000
C    -0.739000000     0.969000000     0.222000000
H    -1.420000000     1.790000000     0.535000000
C    -0.269000000     0.110000000     1.260000000
H    -0.611000000     0.252000000     2.282000000
C     0.515000000    -0.966000000     0.923000000
H     0.746000000    -1.684000000     1.706000000
C     1.026000000    -1.167000000    -0.366000000
C     1.927000000    -2.311000000    -0.636000000
O     2.293000000    -2.976000000     0.348000000
O     2.284000000    -2.529000000    -1.770000000
O    -0.681000000    -5.690000000    -2.905000000
H    -0.722000000    -6.275000000    -3.661000000
H     0.029000000    -6.042000000    -2.368000000
O     4.144000000     0.290000000     0.999000000
H     5.071000000     0.515000000     1.079000000
H     3.791000000     0.937000000     0.389000000
O     3.157000000     4.972000000     0.047000000
H     2.960000000     4.036000000    -0.002000000
H     2.878000000     5.230000000     0.925000000
O    -2.973000000     4.478000000     4.879000000
H    -3.864000000     4.577000000     5.215000000
H    -2.436000000     5.013000000     5.464000000
O     0.545000000     2.960000000     2.521000000
H     0.487000000     2.992000000     3.476000000
H    -0.273000000     3.356000000     2.218000000
O     2.092000000     0.525000000     3.072000000
H     2.411000000     0.081000000     2.286000000
H     1.369000000     1.070000000     2.763000000
O    -6.151000000     4.133000000    -2.217000000
H    -5.782000000     3.662000000    -1.470000000
H    -6.164000000     5.049000000    -1.940000000
O     0.354000000     3.230000000     5.036000000
H    -0.106000000     2.505000000     5.459000000
H     0.931000000     3.577000000     5.716000000
O     4.065000000    -0.879000000    -3.433000000
H     3.997000000    -1.213000000    -4.327000000
H     3.421000000    -1.386000000    -2.938000000
O    -3.848000000    -0.165000000    -0.930000000
H    -2.976000000     0.204000000    -0.784000000
H    -3.881000000    -0.932000000    -0.359000000
O    -1.140000000     7.056000000     2.053000000
H    -1.157000000     6.112000000     1.900000000
H    -1.145000000     7.144000000     3.006000000
O    -0.413000000    -2.025000000    -5.968000000
H     0.157000000    -2.275000000    -5.241000000
H    -1.085000000    -1.474000000    -5.567000000
O    -4.767000000     2.427000000     2.021000000
H    -4.923000000     2.389000000     1.077000000
H    -5.563000000     2.818000000     2.380000000
O     1.956000000     5.505000000     2.459000000
H     1.429000000     4.709000000     2.381000000
H     2.478000000     5.370000000     3.250000000
O     4.375000000     1.736000000     4.577000000
H     4.631000000     1.054000000     5.198000000
H     3.724000000     1.316000000     4.015000000
O    -3.430000000     1.586000000     4.183000000
H    -3.880000000     1.641000000     3.339000000
H    -3.257000000     2.496000000     4.422000000
O    -1.582000000     3.510000000    -5.227000000
H    -2.331000000     3.961000000    -5.618000000
H    -1.004000000     3.321000000    -5.967000000
O     0.271000000    -4.570000000     0.291000000
H     1.030000000    -3.995000000     0.398000000
H    -0.113000000    -4.306000000    -0.545000000
O    -4.331000000     2.602000000    -0.716000000
H    -4.318000000     1.647000000    -0.789000000
H    -3.829000000     2.906000000    -1.472000000
O    -3.046000000    -1.018000000    -4.994000000
H    -3.139000000    -1.131000000    -4.048000000
H    -3.459000000    -0.174000000    -5.176000000
O     2.037000000     2.255000000     0.336000000
H     1.584000000     2.646000000     1.083000000
H     1.523000000     1.475000000     0.125000000
O     3.345000000     1.677000000    -2.937000000
H     4.275000000     1.895000000    -2.995000000
H     3.301000000     0.749000000    -3.168000000
O    -3.367000000     1.356000000     7.142000000
H    -4.037000000     2.031000000     7.247000000
H    -3.223000000     1.305000000     6.197000000
O     5.058000000    -4.339000000    -2.870000000
H     4.379000000    -3.867000000    -3.353000000
H     4.584000000    -4.792000000    -2.172000000
O     3.090000000    -5.328000000     5.255000000
H     2.729000000    -6.213000000     5.312000000
H     2.828000000    -5.018000000     4.388000000
O    -6.484000000    -0.914000000    -1.276000000
H    -5.601000000    -0.552000000    -1.200000000
H    -6.995000000    -0.213000000    -1.682000000
O    -2.281000000     3.553000000    -2.432000000
H    -1.899000000     4.397000000    -2.188000000
H    -2.415000000     3.615000000    -3.378000000
O    -5.634000000     6.003000000    -0.144000000
H    -5.547000000     5.163000000     0.306000000
H    -5.920000000     6.611000000     0.538000000
O     4.625000000    -2.417000000     1.348000000
H     4.519000000    -1.506000000     1.624000000
H     3.882000000    -2.577000000     0.766000000
O     1.670000000     3.110000000    -5.342000000
H     1.529000000     2.768000000    -4.459000000
H     0.978000000     2.709000000    -5.868000000
O    -3.815000000    -2.427000000     3.879000000
H    -4.621000000    -2.118000000     4.294000000
H    -3.124000000    -1.893000000     4.272000000
O     3.391000000    -5.566000000    -4.977000000
H     3.682000000    -4.656000000    -5.038000000
H     3.250000000    -5.833000000    -5.885000000
O     6.383000000    -3.682000000    -0.658000000
H     5.775000000    -3.646000000     0.080000000
H     5.826000000    -3.838000000    -1.420000000
O     0.003000000    -1.322000000     6.405000000
H     0.109000000    -0.431000000     6.737000000
H    -0.944000000    -1.466000000     6.403000000
O    -1.160000000    -5.529000000     2.196000000
H    -0.439000000    -5.210000000     1.654000000
H    -1.836000000    -5.787000000     1.569000000
O     0.104000000    -3.265000000     4.139000000
H    -0.657000000    -3.788000000     4.391000000
H     0.166000000    -2.590000000     4.814000000
O     4.168000000    -2.986000000    -5.289000000
H     4.742000000    -2.294000000    -5.618000000
H     3.587000000    -3.184000000    -6.024000000
O     6.284000000    -0.578000000    -1.286000000
H     5.718000000    -0.512000000    -2.054000000
H     5.971000000    -1.355000000    -0.823000000
O    -0.853000000     6.071000000    -1.825000000
H    -0.228000000     6.657000000    -2.253000000
H    -0.317000000     5.347000000    -1.501000000
O     3.501000000    -1.813000000     4.149000000
H     3.521000000    -2.409000000     3.400000000
H     2.698000000    -1.305000000     4.030000000
O     2.119000000    -4.320000000     2.764000000
H     2.322000000    -3.891000000     1.932000000
H     1.250000000    -3.992000000     2.996000000
O     3.693000000    -7.185000000    -2.745000000
H     3.605000000    -6.595000000    -3.493000000
H     3.848000000    -6.604000000    -1.999000000
O     0.471000000    -3.373000000    -3.657000000
H     1.112000000    -3.107000000    -2.998000000
H     0.159000000    -4.227000000    -3.357000000
O     3.548000000    -5.180000000    -0.803000000
H     3.145000000    -4.312000000    -0.762000000
H     3.548000000    -5.487000000     0.104000000
O    -2.129000000     3.919000000     2.114000000
H    -2.266000000     4.333000000     2.967000000
H    -2.905000000     3.373000000     1.986000000
O    -3.537000000     7.710000000    -1.341000000
H    -4.091000000     7.093000000    -0.862000000
H    -2.724000000     7.230000000    -1.498000000
O    -4.123000000    -2.287000000     1.020000000
H    -4.944000000    -2.316000000     1.511000000
H    -3.444000000    -2.235000000     1.693000000
O     3.755000000    -6.234000000     2.083000000
H     3.014000000    -5.658000000     2.271000000
H     4.527000000    -5.703000000     2.276000000
