158
-3033.61986
C     0.972000000     0.639000000    -0.904000000
H     1.653000000     1.248000000    -1.494000000
C     0.061000000     1.262000000    -0.107000000
H     0.112000000     2.345000000    -0.031000000
C    -0.848000000     0.552000000     0.587000000
H    -1.568000000     1.075000000     1.154000000
C    -0.776000000    -0.823000000     0.676000000
H    -1.512000000    -1.315000000     1.307000000
C     0.149000000    -1.476000000    -0.064000000
H     0.138000000    -2.555000000     0.068000000
C     0.993000000    -0.720000000    -0.932000000
C     2.045000000    -1.438000000    -1.741000000
O     1.825000000    -2.624000000    -1.952000000
O     2.984000000    -0.901000000    -2.274000000
O    -1.964000000    -4.893000000    -5.219000000
H    -1.572000000    -5.635000000    -5.679000000
H    -1.579000000    -4.925000000    -4.343000000
O    -5.447000000    -5.060000000     0.568000000
H    -5.110000000    -4.165000000     0.540000000
H    -5.401000000    -5.306000000     1.492000000
O     3.663000000    -1.996000000     1.395000000
H     4.489000000    -1.666000000     1.040000000
H     3.116000000    -1.217000000     1.491000000
O     3.662000000     3.134000000    -3.049000000
H     4.415000000     3.175000000    -2.459000000
H     3.277000000     2.273000000    -2.886000000
O     2.312000000     3.966000000     4.076000000
H     1.807000000     3.168000000     3.919000000
H     2.909000000     3.736000000     4.788000000
O     0.300000000     1.981000000     4.170000000
H    -0.070000000     2.354000000     4.970000000
H    -0.394000000     2.079000000     3.518000000
O    -5.402000000     3.556000000    -0.768000000
H    -4.792000000     2.962000000    -1.206000000
H    -5.003000000     3.720000000     0.087000000
O    -0.561000000     2.788000000     6.704000000
H    -0.993000000     2.029000000     7.095000000
H    -1.059000000     3.539000000     7.026000000
O     5.468000000    -0.576000000    -3.600000000
H     5.288000000     0.356000000    -3.724000000
H     4.603000000    -0.980000000    -3.531000000
O    -2.594000000    -0.844000000    -2.301000000
H    -2.643000000    -0.550000000    -1.391000000
H    -1.919000000    -1.523000000    -2.296000000
O    -2.540000000     5.289000000     3.485000000
H    -2.529000000     4.378000000     3.779000000
H    -2.733000000     5.793000000     4.275000000
O     0.841000000     1.443000000    -5.966000000
H     0.253000000     1.542000000    -5.217000000
H     1.360000000     0.665000000    -5.761000000
O    -4.150000000     1.050000000     2.067000000
H    -4.045000000     1.048000000     1.115000000
H    -4.834000000     1.699000000     2.231000000
O     7.777000000    -0.911000000    -2.449000000
H     8.378000000    -0.551000000    -3.101000000
H     6.946000000    -1.004000000    -2.915000000
O     1.044000000     4.327000000    -2.119000000
H     1.883000000     4.283000000    -2.577000000
H     1.121000000     5.092000000    -1.549000000
O    -2.987000000     3.662000000    -4.045000000
H    -3.494000000     3.423000000    -3.269000000
H    -3.042000000     2.894000000    -4.614000000
O    -1.108000000    -4.643000000     0.807000000
H    -0.332000000    -4.917000000     0.318000000
H    -1.788000000    -4.541000000     0.141000000
O    -3.225000000     1.851000000    -1.654000000
H    -3.547000000     1.230000000    -2.308000000
H    -2.281000000     1.696000000    -1.622000000
O     2.906000000    -2.903000000    -6.387000000
H     2.655000000    -2.163000000    -6.940000000
H     2.669000000    -3.676000000    -6.899000000
O    -0.177000000    -5.752000000    -3.442000000
H     0.285000000    -5.690000000    -2.606000000
H     0.361000000    -6.343000000    -3.969000000
O     2.449000000     0.539000000     2.068000000
H     2.488000000     0.583000000     3.023000000
H     1.518000000     0.437000000     1.870000000
O     6.117000000     2.887000000    -1.884000000
H     6.367000000     2.536000000    -1.029000000
H     6.868000000     2.702000000    -2.448000000
O    -2.933000000    -4.136000000    -1.482000000
H    -2.163000000    -3.679000000    -1.820000000
H    -3.469000000    -3.446000000    -1.092000000
O     3.555000000    -4.109000000    -3.931000000
H     3.182000000    -4.025000000    -4.808000000
H     3.059000000    -3.487000000    -3.398000000
O    -2.312000000    -6.752000000    -2.011000000
H    -1.614000000    -6.431000000    -2.582000000
H    -2.666000000    -5.964000000    -1.599000000
O     2.558000000    -4.487000000     1.339000000
H     2.904000000    -3.615000000     1.150000000
H     1.861000000    -4.336000000     1.977000000
O    -0.375000000     2.358000000    -3.422000000
H    -0.975000000     3.009000000    -3.786000000
H     0.110000000     2.832000000    -2.747000000
O    -3.498000000    -1.489000000     3.053000000
H    -3.555000000    -0.559000000     2.836000000
H    -2.963000000    -1.518000000     3.846000000
O     2.805000000     4.160000000     0.418000000
H     1.850000000     4.112000000     0.376000000
H     2.987000000     5.038000000     0.753000000
O     6.972000000     1.736000000     0.404000000
H     7.321000000     0.956000000     0.835000000
H     6.031000000     1.704000000     0.575000000
O     5.363000000    -3.851000000    -0.884000000
H     5.355000000    -3.813000000     0.072000000
H     4.843000000    -3.096000000    -1.159000000
O    -2.079000000    -6.125000000     3.223000000
H    -1.781000000    -5.358000000     2.734000000
H    -3.018000000    -5.984000000     3.342000000
O    -1.599000000    -1.786000000     4.839000000
H    -1.574000000    -2.545000000     5.421000000
H    -0.952000000    -1.182000000     5.204000000
O     4.423000000     1.053000000    -5.941000000
H     4.360000000     0.819000000    -6.867000000
H     3.756000000     0.517000000    -5.513000000
O     5.200000000    -0.605000000    -0.638000000
H     4.527000000    -0.709000000    -1.311000000
H     6.023000000    -0.573000000    -1.125000000
O     0.715000000    -0.546000000     5.998000000
H     0.879000000     0.034000000     5.254000000
H     1.580000000    -0.875000000     6.240000000
O     0.370000000    -3.904000000     3.014000000
H    -0.226000000    -4.135000000     2.301000000
H    -0.107000000    -3.247000000     3.521000000
O     6.366000000    -3.873000000    -3.756000000
H     5.455000000    -4.089000000    -3.556000000
H     6.362000000    -3.655000000    -4.688000000
O    -0.260000000     6.337000000     1.317000000
H     0.289000000     6.889000000     1.874000000
H    -0.846000000     5.889000000     1.927000000
O     5.382000000    -6.220000000    -2.288000000
H     4.787000000    -5.878000000    -2.955000000
H     5.679000000    -5.444000000    -1.811000000
O    -6.391000000     2.636000000     2.007000000
H    -6.906000000     1.986000000     1.529000000
H    -7.000000000     3.359000000     2.160000000
O     2.353000000    -0.724000000    -4.950000000
H     2.438000000    -0.722000000    -3.997000000
H     2.415000000    -1.647000000    -5.194000000
O    -0.711000000    -3.038000000    -2.587000000
H     0.169000000    -2.693000000    -2.440000000
H    -0.629000000    -3.579000000    -3.373000000
O     4.455000000     2.097000000     1.113000000
H     3.879000000     2.746000000     0.708000000
H     3.860000000     1.438000000     1.469000000
O     1.055000000    -5.353000000    -1.146000000
H     1.233000000    -4.470000000    -1.468000000
H     1.671000000    -5.474000000    -0.424000000
O    -3.120000000     2.620000000     4.118000000
H    -3.841000000     2.647000000     4.747000000
H    -3.444000000     2.068000000     3.406000000
O    -4.207000000    -2.580000000     0.634000000
H    -5.127000000    -2.315000000     0.645000000
H    -3.795000000    -2.043000000     1.310000000
O     1.206000000     6.897000000    -0.791000000
H     0.630000000     6.637000000    -0.072000000
H     1.569000000     7.738000000    -0.513000000
