158
-3009.73218
C     1.051000000     1.119000000    -0.143000000
H     1.625000000     2.038000000    -0.231000000
C    -0.295000000     1.301000000     0.183000000
H    -0.564000000     2.314000000     0.469000000
C    -1.175000000     0.221000000     0.275000000
H    -2.156000000     0.353000000     0.458000000
C    -0.759000000    -1.084000000     0.002000000
H    -1.458000000    -1.903000000     0.147000000
C     0.638000000    -1.247000000    -0.341000000
H     1.025000000    -2.247000000    -0.520000000
C     1.519000000    -0.163000000    -0.447000000
C     2.936000000    -0.404000000    -0.959000000
O     3.249000000    -1.532000000    -1.311000000
O     3.641000000     0.511000000    -1.317000000
O    -7.984000000     0.898000000     2.371000000
H    -8.516000000     0.103000000     2.348000000
H    -7.257000000     0.717000000     1.776000000
O     2.769000000    -5.332000000     1.613000000
H     2.818000000    -4.793000000     0.824000000
H     1.989000000    -5.016000000     2.070000000
O    -4.411000000     5.131000000     2.989000000
H    -3.466000000     4.981000000     2.975000000
H    -4.682000000     5.032000000     2.076000000
O    -6.076000000    -3.155000000    -0.175000000
H    -5.904000000    -4.043000000    -0.487000000
H    -6.029000000    -2.611000000    -0.961000000
O     4.876000000    -2.127000000     1.280000000
H     5.474000000    -1.735000000     0.643000000
H     4.100000000    -2.357000000     0.771000000
O    -5.634000000    -1.090000000    -1.848000000
H    -5.948000000    -0.385000000    -2.414000000
H    -4.773000000    -1.315000000    -2.200000000
O     3.074000000     2.750000000    -2.688000000
H     3.855000000     3.290000000    -2.571000000
H     3.343000000     1.876000000    -2.407000000
O     0.611000000     3.155000000     4.916000000
H    -0.022000000     2.691000000     4.368000000
H     1.463000000     2.822000000     4.633000000
O    -1.166000000     1.758000000     3.301000000
H    -0.535000000     1.160000000     2.900000000
H    -1.935000000     1.214000000     3.473000000
O     4.858000000    -0.227000000     3.693000000
H     5.417000000     0.550000000     3.682000000
H     5.138000000    -0.734000000     2.931000000
O    -3.328000000     5.695000000    -1.515000000
H    -3.457000000     4.747000000    -1.520000000
H    -2.418000000     5.812000000    -1.242000000
O    -1.216000000    -0.801000000    -3.383000000
H    -1.148000000    -0.606000000    -2.448000000
H    -0.311000000    -0.926000000    -3.668000000
O    -1.781000000     4.471000000     2.713000000
H    -1.105000000     4.627000000     2.053000000
H    -1.719000000     3.535000000     2.903000000
O     0.708000000     2.091000000    -4.117000000
H     1.091000000     1.276000000    -4.442000000
H     1.389000000     2.472000000    -3.563000000
O    -4.958000000     2.803000000    -1.176000000
H    -5.470000000     2.021000000    -0.967000000
H    -5.311000000     3.481000000    -0.600000000
O     7.620000000     1.632000000    -0.974000000
H     7.445000000     2.258000000    -0.271000000
H     8.575000000     1.563000000    -1.000000000
O     2.492000000     1.099000000     4.196000000
H     1.807000000     0.597000000     3.755000000
H     3.287000000     0.580000000     4.073000000
O     1.654000000     4.961000000    -4.147000000
H     1.977000000     4.079000000    -3.960000000
H     1.883000000     5.111000000    -5.064000000
O     0.622000000    -4.093000000     2.764000000
H     0.424000000    -3.615000000     3.570000000
H     0.056000000    -3.692000000     2.104000000
O    -3.522000000     2.107000000    -3.393000000
H    -4.153000000     2.177000000    -2.677000000
H    -2.700000000     2.425000000    -3.019000000
O     4.019000000    -2.039000000    -5.482000000
H     4.863000000    -1.833000000    -5.884000000
H     3.378000000    -1.880000000    -6.175000000
O     0.315000000    -3.888000000    -3.322000000
H     0.128000000    -3.023000000    -3.687000000
H     1.266000000    -3.975000000    -3.386000000
O     4.738000000     2.362000000     0.229000000
H     4.049000000     3.006000000     0.392000000
H     4.335000000     1.724000000    -0.360000000
O     5.101000000     4.466000000    -2.481000000
H     4.680000000     5.301000000    -2.279000000
H     5.985000000     4.704000000    -2.759000000
O    -3.851000000    -3.533000000    -3.518000000
H    -4.569000000    -4.143000000    -3.692000000
H    -3.876000000    -2.919000000    -4.252000000
O    -5.030000000     0.742000000     5.870000000
H    -4.932000000     1.574000000     5.407000000
H    -4.503000000     0.123000000     5.365000000
O     6.491000000    -2.411000000    -2.404000000
H     5.998000000    -1.869000000    -1.788000000
H     5.821000000    -2.853000000    -2.924000000
O    -1.951000000    -4.814000000    -2.126000000
H    -1.183000000    -4.391000000    -2.510000000
H    -2.676000000    -4.223000000    -2.329000000
O     4.506000000    -3.929000000     3.073000000
H     4.575000000    -3.152000000     2.518000000
H     3.934000000    -4.522000000     2.586000000
O    -1.503000000     3.261000000    -2.097000000
H    -0.724000000     2.709000000    -2.170000000
H    -1.165000000     4.156000000    -2.113000000
O    -3.598000000    -1.841000000     5.794000000
H    -4.547000000    -1.894000000     5.908000000
H    -3.328000000    -2.740000000     5.608000000
O     3.038000000     4.180000000     0.510000000
H     3.601000000     4.948000000     0.408000000
H     2.149000000     4.519000000     0.401000000
O    -2.880000000    -4.368000000     2.392000000
H    -3.040000000    -4.086000000     3.292000000
H    -3.209000000    -5.266000000     2.360000000
O    -0.142000000    -5.939000000    -0.448000000
H    -0.795000000    -5.533000000    -1.018000000
H     0.668000000    -5.466000000    -0.638000000
O    -0.303000000    -2.609000000     4.816000000
H     0.081000000    -2.178000000     5.579000000
H    -1.030000000    -3.121000000     5.171000000
O     5.198000000     2.934000000    -4.740000000
H     4.562000000     2.234000000    -4.892000000
H     4.934000000     3.320000000    -3.905000000
O     5.998000000    -0.509000000    -0.581000000
H     5.108000000    -0.197000000    -0.743000000
H     6.556000000     0.242000000    -0.782000000
O     0.390000000    -0.500000000     2.862000000
H     0.040000000    -0.904000000     2.068000000
H     0.365000000    -1.197000000     3.517000000
O     0.547000000     5.395000000     0.518000000
H     1.054000000     5.726000000     1.259000000
H    -0.009000000     6.130000000     0.261000000
O     4.404000000    -3.896000000    -3.426000000
H     4.123000000    -3.250000000    -4.074000000
H     4.483000000    -4.712000000    -3.920000000
O    -5.576000000     5.046000000     0.398000000
H    -5.864000000     5.658000000    -0.280000000
H    -6.356000000     4.529000000     0.600000000
O    -5.648000000     0.406000000     0.667000000
H    -5.994000000    -0.200000000     0.011000000
H    -4.993000000    -0.105000000     1.143000000
O     4.001000000     0.273000000    -4.205000000
H     4.190000000    -0.015000000    -3.312000000
H     4.342000000    -0.428000000    -4.761000000
O     1.484000000    -1.096000000    -3.930000000
H     1.840000000    -0.455000000    -4.546000000
H     2.131000000    -1.138000000    -3.227000000
O     6.651000000     4.104000000     0.232000000
H     6.233000000     4.593000000    -0.477000000
H     6.135000000     3.301000000     0.305000000
O     3.011000000    -4.044000000    -0.779000000
H     3.196000000    -3.131000000    -0.998000000
H     3.470000000    -4.549000000    -1.450000000
O    -2.913000000    -0.346000000     3.414000000
H    -3.317000000    -0.790000000     2.669000000
H    -2.913000000    -1.001000000     4.112000000
O    -4.267000000    -2.141000000     1.552000000
H    -4.888000000    -2.480000000     0.908000000
H    -3.815000000    -2.917000000     1.881000000
