158
-3027.08212
C     1.103000000     0.878000000    -0.544000000
H     1.831000000     1.548000000    -0.994000000
C     0.062000000     1.365000000     0.244000000
H    -0.097000000     2.420000000     0.450000000
C    -0.957000000     0.464000000     0.658000000
H    -1.882000000     0.755000000     1.112000000
C    -0.776000000    -0.905000000     0.408000000
H    -1.562000000    -1.568000000     0.760000000
C     0.238000000    -1.398000000    -0.307000000
H     0.336000000    -2.434000000    -0.621000000
C     1.216000000    -0.510000000    -0.849000000
C     2.383000000    -1.029000000    -1.693000000
O     2.540000000    -2.256000000    -1.840000000
O     3.277000000    -0.244000000    -2.043000000
O    -7.309000000     0.001000000     2.481000000
H    -7.269000000     0.887000000     2.841000000
H    -6.427000000    -0.162000000     2.146000000
O    -0.375000000     5.256000000     2.453000000
H     0.407000000     4.790000000     2.749000000
H    -1.103000000     4.693000000     2.716000000
O     3.732000000    -6.503000000     1.368000000
H     3.749000000    -5.714000000     0.827000000
H     2.912000000    -6.439000000     1.859000000
O    -3.330000000     4.867000000     3.246000000
H    -3.755000000     4.068000000     3.559000000
H    -2.997000000     4.638000000     2.379000000
O     6.389000000    -2.807000000    -0.645000000
H     6.071000000    -2.060000000    -1.152000000
H     5.608000000    -3.335000000    -0.482000000
O     3.896000000     2.161000000    -3.050000000
H     4.843000000     2.177000000    -2.908000000
H     3.587000000     1.422000000    -2.528000000
O     0.848000000     2.375000000     3.195000000
H     0.684000000     1.434000000     3.137000000
H     1.675000000     2.503000000     2.730000000
O     0.548000000    -0.323000000     3.367000000
H     0.683000000    -0.883000000     2.602000000
H    -0.367000000    -0.464000000     3.608000000
O     5.660000000    -0.817000000     2.451000000
H     5.931000000    -0.022000000     2.909000000
H     5.350000000    -0.509000000     1.599000000
O     4.891000000    -0.600000000    -7.004000000
H     4.613000000    -0.276000000    -6.147000000
H     4.304000000    -0.171000000    -7.625000000
O    -2.744000000    -2.738000000    -2.839000000
H    -2.819000000    -1.809000000    -2.620000000
H    -1.854000000    -2.834000000    -3.175000000
O    -2.527000000     3.895000000     0.552000000
H    -2.431000000     4.676000000     0.008000000
H    -1.962000000     3.243000000     0.136000000
O    -1.556000000     2.106000000     6.136000000
H    -1.541000000     3.022000000     6.412000000
H    -0.634000000     1.849000000     6.109000000
O     0.648000000     1.157000000    -5.379000000
H     0.721000000     2.070000000    -5.659000000
H     1.547000000     0.893000000    -5.185000000
O    -4.162000000     1.466000000    -0.152000000
H    -4.481000000     0.732000000     0.374000000
H    -4.669000000     2.218000000     0.154000000
O    -5.164000000     2.806000000     4.124000000
H    -5.666000000     3.327000000     4.750000000
H    -5.681000000     2.836000000     3.319000000
O     2.101000000     4.074000000    -2.951000000
H     2.675000000     3.322000000    -3.096000000
H     2.499000000     4.781000000    -3.458000000
O    -5.212000000     1.815000000    -2.768000000
H    -5.704000000     1.044000000    -2.487000000
H    -4.842000000     2.171000000    -1.960000000
O    -2.426000000     0.244000000    -1.972000000
H    -2.042000000     0.451000000    -1.120000000
H    -3.242000000     0.744000000    -1.995000000
O     0.353000000    -6.131000000    -3.477000000
H     0.182000000    -5.254000000    -3.133000000
H    -0.512000000    -6.534000000    -3.547000000
O     4.992000000     0.484000000     0.251000000
H     5.511000000     1.102000000    -0.265000000
H     4.169000000     0.403000000    -0.231000000
O     3.075000000     3.958000000    -0.321000000
H     2.400000000     4.074000000    -0.989000000
H     3.795000000     4.520000000    -0.607000000
O    -4.452000000     1.427000000     6.537000000
H    -3.717000000     0.902000000     6.221000000
H    -4.668000000     2.003000000     5.804000000
O     6.964000000     1.308000000    -3.218000000
H     7.650000000     0.641000000    -3.219000000
H     7.134000000     1.828000000    -4.004000000
O     5.478000000    -3.915000000    -4.129000000
H     5.357000000    -3.198000000    -3.506000000
H     4.591000000    -4.222000000    -4.316000000
O     0.318000000    -2.265000000    -5.140000000
H     0.987000000    -1.966000000    -5.756000000
H    -0.510000000    -1.989000000    -5.533000000
O    -1.068000000    -4.519000000    -0.199000000
H    -1.334000000    -4.214000000    -1.067000000
H    -1.831000000    -4.356000000     0.356000000
O    -0.579000000     3.855000000    -2.515000000
H     0.219000000     3.398000000    -2.780000000
H    -0.346000000     4.287000000    -1.694000000
O     3.372000000     2.480000000     1.902000000
H     4.245000000     2.126000000     1.733000000
H     3.169000000     2.999000000     1.124000000
O     6.331000000     2.329000000    -0.866000000
H     6.655000000     2.099000000    -1.737000000
H     6.961000000     2.972000000    -0.538000000
O    -1.878000000     6.391000000     4.768000000
H    -2.431000000     5.786000000     4.273000000
H    -1.524000000     6.986000000     4.107000000
O     0.033000000    -1.943000000     6.098000000
H    -0.554000000    -2.264000000     5.414000000
H     0.166000000    -1.019000000     5.885000000
O    -1.950000000     0.752000000    -4.587000000
H    -1.065000000     1.076000000    -4.757000000
H    -1.984000000     0.634000000    -3.638000000
O    -0.420000000    -7.160000000     0.594000000
H    -0.593000000    -6.248000000     0.364000000
H     0.416000000    -7.135000000     1.061000000
O     3.853000000     2.492000000    -6.045000000
H     3.947000000     2.363000000    -5.101000000
H     3.097000000     3.073000000    -6.132000000
O     5.630000000    -1.391000000    -2.720000000
H     4.690000000    -1.255000000    -2.602000000
H     5.990000000    -0.509000000    -2.809000000
O     0.429000000    -3.027000000     2.361000000
H     0.115000000    -3.554000000     1.626000000
H     0.346000000    -3.603000000     3.121000000
O     0.682000000     5.646000000    -0.385000000
H     1.500000000     6.103000000    -0.188000000
H     0.208000000     5.634000000     0.447000000
O    -6.567000000     2.854000000     1.868000000
H    -6.175000000     3.508000000     1.290000000
H    -7.375000000     2.596000000     1.425000000
O     3.076000000    -5.861000000    -3.398000000
H     2.160000000    -6.041000000    -3.611000000
H     3.534000000    -6.677000000    -3.600000000
O    -5.165000000     4.492000000    -0.057000000
H    -5.514000000     4.915000000    -0.841000000
H    -4.267000000     4.818000000     0.011000000
O    -5.066000000    -0.881000000     0.983000000
H    -5.492000000    -1.277000000     0.223000000
H    -4.524000000    -1.581000000     1.346000000
O     3.335000000    -0.565000000    -4.733000000
H     3.199000000    -0.424000000    -3.796000000
H     2.899000000    -1.398000000    -4.915000000
O    -0.065000000    -3.493000000    -2.809000000
H     0.189000000    -3.146000000    -3.663000000
H     0.636000000    -3.215000000    -2.219000000
O     1.583000000     4.748000000     4.658000000
H     1.327000000     3.887000000     4.328000000
H     1.523000000     4.667000000     5.610000000
O     3.868000000    -4.466000000    -0.847000000
H     3.446000000    -3.712000000    -1.260000000
H     3.698000000    -5.193000000    -1.445000000
O    -2.297000000    -1.935000000     4.483000000
H    -2.478000000    -2.253000000     3.599000000
H    -3.061000000    -2.201000000     4.995000000
O    -3.792000000    -3.225000000     1.536000000
H    -4.146000000    -3.568000000     0.716000000
H    -3.687000000    -3.997000000     2.093000000
