158
-3016.65072
C     1.214000000     0.778000000     0.231000000
H     2.078000000     1.392000000     0.474000000
C    -0.022000000     1.258000000     0.431000000
H    -0.153000000     2.297000000     0.721000000
C    -1.088000000     0.392000000     0.200000000
H    -2.074000000     0.745000000     0.370000000
C    -0.954000000    -0.882000000    -0.353000000
H    -1.836000000    -1.481000000    -0.563000000
C     0.346000000    -1.339000000    -0.626000000
H     0.506000000    -2.336000000    -1.028000000
C     1.441000000    -0.536000000    -0.249000000
C     2.866000000    -0.937000000    -0.423000000
O     3.129000000    -2.133000000    -0.651000000
O     3.805000000    -0.153000000    -0.238000000
O    -4.642000000     0.288000000     2.182000000
H    -5.260000000     0.860000000     1.727000000
H    -4.592000000    -0.495000000     1.634000000
O     2.287000000     3.966000000     3.621000000
H     2.729000000     3.151000000     3.858000000
H     1.930000000     3.800000000     2.748000000
O     6.439000000    -4.923000000     0.059000000
H     5.937000000    -4.434000000     0.712000000
H     6.054000000    -4.669000000    -0.779000000
O    -1.388000000     4.100000000     1.529000000
H    -2.026000000     3.645000000     0.979000000
H    -1.890000000     4.389000000     2.290000000
O    -2.477000000    -5.494000000     0.376000000
H    -1.614000000    -5.357000000    -0.015000000
H    -2.334000000    -5.390000000     1.316000000
O     4.513000000     0.608000000    -2.960000000
H     5.018000000    -0.182000000    -3.154000000
H     4.149000000     0.451000000    -2.089000000
O     7.476000000     2.022000000     2.705000000
H     7.025000000     2.850000000     2.541000000
H     7.009000000     1.384000000     2.165000000
O     2.363000000    -6.011000000     1.583000000
H     2.012000000    -5.159000000     1.843000000
H     2.692000000    -5.874000000     0.694000000
O    -2.782000000     3.359000000     4.343000000
H    -3.326000000     4.021000000     3.916000000
H    -1.961000000     3.812000000     4.537000000
O    -4.576000000     1.890000000     5.755000000
H    -5.354000000     2.014000000     5.211000000
H    -3.873000000     2.322000000     5.270000000
O     3.447000000     1.555000000     2.909000000
H     2.543000000     1.347000000     3.146000000
H     3.739000000     0.803000000     2.393000000
O     5.151000000    -1.774000000     3.265000000
H     4.951000000    -2.305000000     2.494000000
H     5.888000000    -1.227000000     2.995000000
O    -0.874000000    -4.785000000    -2.998000000
H    -1.145000000    -4.161000000    -3.672000000
H     0.043000000    -4.973000000    -3.201000000
O    -1.235000000     3.627000000    -3.093000000
H    -0.295000000     3.683000000    -3.268000000
H    -1.407000000     2.689000000    -3.011000000
O     2.046000000    -0.585000000    -5.179000000
H     1.522000000    -1.316000000    -5.508000000
H     2.537000000    -0.954000000    -4.444000000
O    -1.033000000     0.753000000    -2.817000000
H    -1.423000000    -0.063000000    -3.130000000
H    -0.899000000     0.610000000    -1.880000000
O     2.181000000    -2.951000000     3.283000000
H     1.232000000    -2.822000000     3.274000000
H     2.490000000    -2.407000000     4.007000000
O    -2.167000000     0.551000000     3.242000000
H    -2.132000000     1.505000000     3.170000000
H    -3.093000000     0.336000000     3.132000000
O    -5.535000000     2.583000000    -2.675000000
H    -5.531000000     1.737000000    -2.228000000
H    -6.283000000     2.535000000    -3.271000000
O     4.615000000     2.696000000     0.496000000
H     4.732000000     1.749000000     0.422000000
H     4.196000000     2.819000000     1.348000000
O    -4.322000000     0.020000000    -5.724000000
H    -5.174000000    -0.016000000    -6.158000000
H    -4.520000000    -0.106000000    -4.796000000
O    -5.305000000    -0.576000000     4.679000000
H    -5.242000000    -0.068000000     3.870000000
H    -4.830000000    -0.055000000     5.326000000
O     0.057000000    -5.196000000    -0.614000000
H    -0.473000000    -5.062000000    -1.400000000
H     0.958000000    -5.064000000    -0.907000000
O     6.292000000    -0.041000000     1.279000000
H     6.979000000    -0.582000000     0.890000000
H     5.525000000    -0.193000000     0.728000000
O     0.732000000     0.626000000     3.858000000
H    -0.168000000     0.506000000     3.556000000
H     1.046000000    -0.261000000     4.035000000
O    -4.701000000    -4.373000000    -3.025000000
H    -4.894000000    -5.199000000    -2.581000000
H    -3.977000000    -4.581000000    -3.615000000
O    -4.022000000     4.583000000    -4.123000000
H    -3.271000000     4.203000000    -3.669000000
H    -4.741000000     3.975000000    -3.948000000
O    -3.980000000     5.274000000     2.485000000
H    -4.319000000     5.928000000     3.096000000
H    -4.440000000     5.450000000     1.665000000
O    -0.392000000    -2.801000000     2.021000000
H     0.003000000    -2.492000000     1.205000000
H    -1.334000000    -2.790000000     1.851000000
O    -0.413000000     4.962000000     4.468000000
H    -0.382000000     5.917000000     4.411000000
H     0.502000000     4.688000000     4.401000000
O     1.828000000    -4.246000000    -4.209000000
H     1.605000000    -4.062000000    -5.121000000
H     2.515000000    -4.911000000    -4.259000000
O    -6.370000000     2.056000000     0.869000000
H    -6.719000000     2.286000000     1.730000000
H    -6.725000000     2.723000000     0.281000000
O     3.677000000     2.597000000    -4.720000000
H     3.849000000     1.787000000    -4.240000000
H     3.203000000     2.316000000    -5.502000000
O     5.565000000    -2.116000000    -4.484000000
H     5.673000000    -2.932000000    -4.972000000
H     4.666000000    -2.150000000    -4.156000000
O    -6.022000000     0.352000000    -1.198000000
H    -6.394000000     0.795000000    -0.436000000
H    -6.759000000    -0.118000000    -1.587000000
O    -1.602000000    -1.829000000     4.749000000
H    -1.389000000    -2.300000000     3.943000000
H    -1.711000000    -0.919000000     4.473000000
O     4.929000000    -4.654000000    -2.690000000
H     4.715000000    -5.094000000    -3.512000000
H     5.396000000    -3.862000000    -2.956000000
O     1.545000000     4.029000000    -3.830000000
H     1.799000000     4.336000000    -2.960000000
H     2.341000000     3.635000000    -4.187000000
O    -3.901000000     3.520000000    -0.445000000
H    -4.559000000     4.052000000     0.003000000
H    -4.240000000     3.419000000    -1.335000000
O    -1.573000000     6.286000000    -0.418000000
H    -2.440000000     6.300000000    -0.824000000
H    -1.322000000     5.362000000    -0.422000000
O    -3.839000000    -0.136000000    -2.816000000
H    -4.131000000    -1.048000000    -2.825000000
H    -4.231000000     0.234000000    -2.026000000
O     3.281000000    -2.188000000    -3.210000000
H     3.328000000    -2.046000000    -2.264000000
H     2.742000000    -2.972000000    -3.309000000
O     2.593000000    -4.579000000    -1.048000000
H     3.397000000    -4.917000000    -1.443000000
H     2.740000000    -3.637000000    -0.974000000
O     1.242000000     4.738000000     1.229000000
H     1.118000000     5.553000000     1.716000000
H     0.385000000     4.311000000     1.256000000
O     4.131000000    -3.367000000     1.414000000
H     3.926000000    -2.896000000     0.606000000
H     3.318000000    -3.341000000     1.919000000
O    -4.134000000    -2.461000000     0.952000000
H    -4.049000000    -3.188000000     1.569000000
H    -4.582000000    -2.841000000     0.196000000
O     2.660000000     4.344000000    -1.296000000
H     2.204000000     4.411000000    -0.457000000
H     3.304000000     3.649000000    -1.164000000
O    -4.488000000    -3.489000000     4.969000000
H    -4.122000000    -2.683000000     4.604000000
H    -5.256000000    -3.202000000     5.462000000
