158
-3033.28452
C    -0.022000000     0.735000000    -1.271000000
H    -0.130000000     1.254000000    -2.220000000
C     0.064000000    -0.637000000    -1.243000000
H     0.167000000    -1.172000000    -2.184000000
C     0.045000000    -1.232000000     0.020000000
H    -0.095000000    -2.283000000     0.159000000
C    -0.042000000    -0.469000000     1.149000000
H    -0.026000000    -0.979000000     2.109000000
C    -0.076000000     0.905000000     1.090000000
H     0.057000000     1.443000000     2.025000000
C    -0.005000000     1.572000000    -0.128000000
C    -0.128000000     3.097000000    -0.214000000
O    -0.114000000     3.755000000     0.821000000
O    -0.070000000     3.652000000    -1.304000000
O     1.692000000    -0.281000000    -5.443000000
H     2.374000000    -0.754000000    -4.966000000
H     1.742000000     0.614000000    -5.109000000
O    -2.786000000     7.235000000    -1.513000000
H    -2.165000000     7.239000000    -0.784000000
H    -3.092000000     6.329000000    -1.561000000
O    -4.273000000     2.103000000     0.413000000
H    -4.731000000     2.667000000     1.036000000
H    -4.347000000     1.224000000     0.787000000
O    -0.275000000     3.218000000    -6.530000000
H    -0.770000000     2.542000000    -6.993000000
H    -0.296000000     2.945000000    -5.613000000
O    -0.158000000    -1.567000000    -7.447000000
H     0.443000000    -1.461000000    -8.184000000
H     0.412000000    -1.691000000    -6.689000000
O    -2.412000000    -2.830000000     3.976000000
H    -2.156000000    -2.653000000     4.881000000
H    -1.685000000    -3.338000000     3.616000000
O    -2.918000000     4.389000000    -1.082000000
H    -3.089000000     3.737000000    -0.402000000
H    -1.991000000     4.276000000    -1.293000000
O     2.600000000    -3.480000000     4.352000000
H     3.107000000    -2.669000000     4.324000000
H     3.147000000    -4.087000000     4.852000000
O     3.850000000    -5.944000000     0.018000000
H     4.165000000    -6.754000000     0.419000000
H     4.429000000    -5.265000000     0.363000000
O    -1.410000000     7.246000000     0.693000000
H    -0.455000000     7.239000000     0.634000000
H    -1.620000000     6.519000000     1.280000000
O    -4.105000000    -0.752000000     0.895000000
H    -4.954000000    -1.178000000     1.013000000
H    -3.574000000    -1.402000000     0.434000000
O    -1.664000000     0.614000000    -4.220000000
H    -2.055000000     0.558000000    -3.348000000
H    -1.629000000     1.552000000    -4.408000000
O     0.044000000     0.144000000     6.417000000
H    -0.552000000    -0.289000000     5.805000000
H    -0.464000000     0.874000000     6.770000000
O    -2.692000000    -2.500000000    -0.718000000
H    -2.375000000    -3.364000000    -0.457000000
H    -1.936000000    -2.082000000    -1.131000000
O     5.082000000    -3.583000000     0.523000000
H     4.312000000    -3.039000000     0.686000000
H     5.280000000    -3.978000000     1.372000000
O     1.161000000     6.548000000     1.193000000
H     1.078000000     5.607000000     1.348000000
H     2.099000000     6.721000000     1.264000000
O    -0.200000000     5.654000000     5.103000000
H    -0.086000000     5.122000000     5.891000000
H     0.335000000     5.219000000     4.440000000
O    -0.320000000     8.241000000    -3.111000000
H    -1.166000000     8.307000000    -2.668000000
H     0.042000000     7.407000000    -2.812000000
O     2.867000000    -2.567000000     1.438000000
H     2.138000000    -3.128000000     1.706000000
H     2.450000000    -1.761000000     1.135000000
O    -3.375000000    -6.030000000     2.714000000
H    -2.544000000    -6.413000000     2.994000000
H    -3.472000000    -6.306000000     1.803000000
O     1.159000000     6.024000000    -1.400000000
H     1.537000000     6.142000000    -0.529000000
H     0.754000000     5.157000000    -1.370000000
O     4.396000000    -4.066000000    -2.347000000
H     4.218000000    -4.153000000    -1.411000000
H     3.530000000    -4.011000000    -2.751000000
O    -3.347000000    -0.255000000     3.424000000
H    -3.022000000    -1.120000000     3.673000000
H    -3.628000000    -0.358000000     2.514000000
O     3.264000000     4.009000000     0.473000000
H     3.225000000     3.479000000     1.270000000
H     3.421000000     3.376000000    -0.228000000
O     1.954000000    -3.365000000    -3.828000000
H     1.081000000    -3.276000000    -3.446000000
H     1.824000000    -3.918000000    -4.598000000
O     3.235000000     2.441000000     2.707000000
H     2.941000000     1.537000000     2.824000000
H     4.083000000     2.476000000     3.148000000
O     2.844000000     0.076000000     0.597000000
H     3.328000000     0.455000000    -0.137000000
H     1.953000000     0.410000000     0.493000000
O     1.181000000    -5.976000000    -0.091000000
H     2.113000000    -5.914000000    -0.299000000
H     1.157000000    -6.332000000     0.797000000
O     0.633000000     7.977000000     3.640000000
H     0.809000000     7.738000000     2.730000000
H     0.014000000     7.314000000     3.946000000
O    -0.885000000     3.416000000    -3.786000000
H    -0.511000000     3.521000000    -2.911000000
H    -1.706000000     3.908000000    -3.756000000
O     1.819000000    -6.484000000     2.579000000
H     2.541000000    -6.958000000     2.990000000
H     1.588000000    -5.804000000     3.211000000
O     3.942000000     6.592000000     1.029000000
H     4.585000000     6.508000000     1.732000000
H     3.712000000     5.690000000     0.805000000
O     0.190000000    -4.690000000     4.497000000
H     0.977000000    -4.145000000     4.514000000
H    -0.262000000    -4.483000000     5.315000000
O     5.366000000    -0.338000000     1.507000000
H     5.409000000    -1.191000000     1.939000000
H     4.460000000    -0.268000000     1.207000000
O     2.129000000     2.216000000    -4.121000000
H     1.517000000     2.734000000    -3.597000000
H     2.564000000     2.857000000    -4.683000000
O     4.069000000    -1.545000000    -3.898000000
H     4.196000000    -1.594000000    -4.846000000
H     3.643000000    -2.372000000    -3.671000000
O     1.026000000     4.224000000     3.084000000
H     0.503000000     3.994000000     2.316000000
H     1.811000000     3.681000000     3.009000000
O     2.339000000     0.167000000     4.717000000
H     2.474000000    -0.649000000     4.235000000
H     1.603000000    -0.018000000     5.300000000
O    -3.809000000    -5.759000000    -0.568000000
H    -4.274000000    -5.916000000    -1.389000000
H    -2.889000000    -5.690000000    -0.823000000
O    -2.029000000     2.163000000     6.227000000
H    -2.885000000     1.772000000     6.400000000
H    -2.012000000     2.293000000     5.279000000
O    -2.572000000     2.301000000     3.533000000
H    -2.561000000     1.344000000     3.568000000
H    -3.483000000     2.523000000     3.339000000
O    -3.490000000     0.543000000    -1.964000000
H    -3.602000000     1.168000000    -1.247000000
H    -3.187000000    -0.259000000    -1.538000000
O     2.778000000     6.385000000    -3.680000000
H     2.314000000     6.302000000    -2.846000000
H     3.626000000     6.762000000    -3.445000000
O    -0.773000000    -3.447000000    -3.163000000
H    -1.617000000    -3.262000000    -3.575000000
H    -0.974000000    -4.096000000    -2.488000000
O     3.600000000     1.530000000    -1.348000000
H     4.277000000     0.998000000    -1.766000000
H     3.108000000     1.908000000    -2.077000000
O    -2.313000000     4.596000000     2.000000000
H    -1.436000000     4.408000000     1.665000000
H    -2.655000000     3.743000000     2.266000000
O    -3.298000000    -3.211000000    -4.078000000
H    -3.878000000    -3.477000000    -4.791000000
H    -3.823000000    -2.606000000    -3.554000000
O    -1.205000000    -5.520000000    -1.107000000
H    -0.301000000    -5.678000000    -0.833000000
H    -1.360000000    -6.161000000    -1.801000000
