158
-3012.25848
C     1.157000000     0.080000000     0.869000000
H     1.973000000     0.003000000     1.583000000
C    -0.044000000     0.711000000     1.159000000
H    -0.295000000     1.270000000     2.057000000
C    -1.064000000     0.624000000     0.190000000
H    -2.085000000     0.986000000     0.381000000
C    -0.797000000    -0.090000000    -0.955000000
H    -1.586000000    -0.225000000    -1.691000000
C     0.426000000    -0.795000000    -1.199000000
H     0.481000000    -1.475000000    -2.045000000
C     1.397000000    -0.752000000    -0.236000000
C     2.639000000    -1.629000000    -0.330000000
O     2.795000000    -2.408000000    -1.287000000
O     3.436000000    -1.665000000     0.578000000
O    -4.570000000     0.562000000     1.611000000
H    -5.514000000     0.717000000     1.584000000
H    -4.408000000    -0.055000000     0.897000000
O     0.697000000     3.246000000     4.575000000
H     0.275000000     2.520000000     5.034000000
H     0.004000000     3.896000000     4.466000000
O    -4.252000000    -0.938000000    -0.473000000
H    -3.685000000    -1.643000000    -0.161000000
H    -4.825000000    -1.357000000    -1.114000000
O     7.715000000    -4.913000000     0.346000000
H     7.298000000    -5.747000000     0.564000000
H     6.990000000    -4.345000000     0.085000000
O    -0.990000000     7.585000000    -0.567000000
H    -1.257000000     6.731000000    -0.227000000
H    -1.806000000     7.995000000    -0.852000000
O     0.248000000    -3.219000000     1.492000000
H     1.108000000    -2.807000000     1.573000000
H     0.430000000    -4.159000000     1.495000000
O     6.277000000    -0.912000000     3.931000000
H     7.226000000    -1.039000000     3.959000000
H     6.087000000    -0.362000000     4.690000000
O     5.175000000    -1.632000000    -2.438000000
H     5.009000000    -1.049000000    -3.179000000
H     4.306000000    -1.926000000    -2.165000000
O     4.864000000    -5.638000000    -0.152000000
H     5.055000000    -4.765000000     0.191000000
H     3.908000000    -5.679000000    -0.184000000
O    -3.238000000     4.303000000     3.665000000
H    -2.532000000     4.896000000     3.923000000
H    -3.274000000     4.374000000     2.711000000
O    -5.917000000     3.213000000     4.004000000
H    -6.401000000     3.644000000     3.299000000
H    -5.029000000     3.563000000     3.932000000
O     3.231000000     2.927000000     3.725000000
H     2.380000000     3.131000000     4.114000000
H     3.438000000     2.051000000     4.049000000
O     3.682000000    -2.050000000     3.246000000
H     3.702000000    -2.115000000     2.291000000
H     4.546000000    -1.712000000     3.481000000
O    -1.605000000    -5.549000000    -3.467000000
H    -0.861000000    -5.582000000    -2.865000000
H    -1.224000000    -5.722000000    -4.328000000
O    -0.431000000     3.953000000    -0.061000000
H     0.325000000     3.761000000     0.495000000
H    -0.686000000     3.104000000    -0.420000000
O     2.712000000     0.406000000     4.622000000
H     3.405000000     0.271000000     5.268000000
H     2.533000000    -0.468000000     4.276000000
O     1.258000000     2.098000000    -4.136000000
H     0.346000000     1.806000000    -4.141000000
H     1.413000000     2.384000000    -3.236000000
O     5.165000000    -4.858000000     2.774000000
H     4.325000000    -5.289000000     2.927000000
H     5.367000000    -4.423000000     3.602000000
O    -2.441000000     1.616000000     4.170000000
H    -2.528000000     2.530000000     3.900000000
H    -3.281000000     1.218000000     3.941000000
O    -2.896000000     5.442000000    -3.350000000
H    -2.578000000     6.077000000    -3.992000000
H    -3.657000000     5.865000000    -2.951000000
O     1.961000000     3.972000000     1.289000000
H     2.490000000     4.769000000     1.278000000
H     2.435000000     3.377000000     1.869000000
O     4.493000000     0.116000000    -4.394000000
H     3.824000000    -0.180000000    -5.012000000
H     5.064000000     0.683000000    -4.912000000
O    -3.730000000    -4.135000000    -2.210000000
H    -3.333000000    -3.747000000    -1.430000000
H    -2.986000000    -4.438000000    -2.731000000
O     0.381000000    -5.848000000    -1.215000000
H     0.283000000    -5.826000000    -0.263000000
H     1.198000000    -5.378000000    -1.383000000
O     5.594000000     0.181000000     0.519000000
H     5.467000000    -0.611000000    -0.004000000
H     5.364000000    -0.082000000     1.410000000
O     0.580000000     1.305000000     7.200000000
H     0.723000000     1.052000000     6.288000000
H     0.917000000     0.568000000     7.709000000
O    -5.549000000    -2.193000000    -2.225000000
H    -4.958000000    -2.935000000    -2.098000000
H    -5.699000000    -2.164000000    -3.170000000
O    -3.336000000    -1.812000000    -5.840000000
H    -3.357000000    -1.733000000    -4.886000000
H    -3.558000000    -2.727000000    -6.010000000
O    -1.601000000    -2.495000000     4.294000000
H    -1.046000000    -2.212000000     3.568000000
H    -1.198000000    -3.307000000     4.602000000
O     2.232000000    -4.725000000     3.549000000
H     2.388000000    -3.808000000     3.321000000
H     2.713000000    -4.853000000     4.367000000
O    -7.425000000     1.153000000     2.515000000
H    -7.658000000     2.046000000     2.261000000
H    -6.803000000     1.263000000     3.234000000
O    -6.145000000     4.457000000     0.138000000
H    -6.982000000     4.171000000     0.504000000
H    -5.488000000     3.967000000     0.631000000
O     4.688000000     2.246000000    -2.181000000
H     5.471000000     1.806000000    -2.513000000
H     3.999000000     1.584000000    -2.238000000
O    -3.526000000     0.395000000    -3.412000000
H    -4.418000000     0.715000000    -3.547000000
H    -3.304000000     0.676000000    -2.524000000
O    -1.717000000    -0.118000000     5.897000000
H    -1.668000000    -0.860000000     5.295000000
H    -1.902000000     0.635000000     5.335000000
O     5.771000000    -3.784000000    -4.728000000
H     5.111000000    -3.198000000    -4.357000000
H     6.595000000    -3.494000000    -4.337000000
O     1.107000000     5.526000000    -2.707000000
H     0.393000000     5.526000000    -2.069000000
H     1.717000000     4.863000000    -2.384000000
O    -3.615000000     3.007000000    -1.958000000
H    -3.224000000     3.822000000    -2.274000000
H    -4.467000000     2.967000000    -2.392000000
O    -1.192000000     1.074000000    -4.543000000
H    -0.950000000     0.470000000    -5.245000000
H    -1.941000000     0.657000000    -4.116000000
O     3.069000000    -2.706000000    -4.339000000
H     2.718000000    -2.085000000    -3.700000000
H     2.797000000    -2.356000000    -5.187000000
O     2.896000000    -4.992000000    -1.923000000
H     3.249000000    -4.855000000    -2.802000000
H     2.869000000    -4.116000000    -1.537000000
O    -1.067000000     5.831000000     2.210000000
H    -0.824000000     5.356000000     1.414000000
H    -1.856000000     6.316000000     1.967000000
O    -3.865000000     3.300000000     1.262000000
H    -3.518000000     3.465000000     0.385000000
H    -3.568000000     2.416000000     1.475000000
O    -6.000000000     1.739000000    -3.866000000
H    -6.058000000     2.544000000    -3.352000000
H    -5.686000000     2.025000000    -4.724000000
O     5.707000000    -3.142000000    -0.007000000
H     5.138000000    -2.616000000     0.556000000
H     5.724000000    -2.670000000    -0.839000000
O    -2.510000000    -2.882000000     0.042000000
H    -1.779000000    -2.268000000     0.110000000
H    -2.252000000    -3.623000000     0.591000000
O     2.410000000     3.416000000    -1.360000000
H     2.036000000     3.438000000    -0.479000000
H     3.302000000     3.092000000    -1.232000000
O    -3.766000000    -2.025000000     2.677000000
H    -3.152000000    -2.407000000     3.304000000
H    -3.698000000    -1.081000000     2.819000000
