158
-3034.66929
C     1.441000000     0.215000000     0.109000000
H     2.492000000     0.382000000     0.331000000
C     0.499000000     1.149000000     0.392000000
H     0.800000000     2.066000000     0.893000000
C    -0.852000000     0.858000000     0.232000000
H    -1.572000000     1.553000000     0.555000000
C    -1.268000000    -0.390000000    -0.186000000
H    -2.321000000    -0.637000000    -0.299000000
C    -0.365000000    -1.367000000    -0.384000000
H    -0.598000000    -2.379000000    -0.707000000
C     1.043000000    -1.059000000    -0.381000000
C     2.184000000    -2.041000000    -0.641000000
O     2.042000000    -2.963000000    -1.405000000
O     3.307000000    -1.954000000    -0.167000000
O     1.084000000     1.484000000     5.410000000
H     0.299000000     1.505000000     4.862000000
H     1.133000000     0.581000000     5.724000000
O    -5.227000000     0.636000000    -0.816000000
H    -5.031000000     0.233000000    -1.662000000
H    -5.587000000     1.495000000    -1.038000000
O    -1.554000000     7.497000000    -1.115000000
H    -2.307000000     7.838000000    -1.598000000
H    -1.938000000     7.035000000    -0.369000000
O     5.638000000    -5.156000000     2.757000000
H     4.956000000    -4.861000000     2.154000000
H     6.434000000    -4.721000000     2.451000000
O    -2.670000000     4.691000000    -2.673000000
H    -3.507000000     4.775000000    -2.217000000
H    -2.011000000     4.771000000    -1.983000000
O     1.768000000     6.268000000     0.194000000
H     1.776000000     7.224000000     0.224000000
H     2.507000000     6.038000000    -0.369000000
O    -1.192000000    -3.975000000     2.754000000
H    -0.282000000    -3.677000000     2.750000000
H    -1.175000000    -4.789000000     3.257000000
O    -3.407000000    -3.853000000    -1.091000000
H    -3.047000000    -3.697000000    -1.964000000
H    -4.132000000    -4.461000000    -1.236000000
O     4.766000000    -0.313000000    -1.711000000
H     4.013000000     0.117000000    -2.116000000
H     4.418000000    -1.139000000    -1.375000000
O    -5.263000000     5.172000000     2.860000000
H    -4.896000000     6.029000000     3.076000000
H    -4.668000000     4.545000000     3.272000000
O     6.968000000    -0.755000000     0.991000000
H     7.294000000     0.144000000     1.034000000
H     6.015000000    -0.666000000     1.015000000
O    -2.963000000    -1.423000000    -4.864000000
H    -3.556000000    -1.271000000    -4.128000000
H    -2.372000000    -0.669000000    -4.854000000
O     3.267000000    -2.623000000     4.841000000
H     3.773000000    -2.074000000     4.242000000
H     3.725000000    -2.548000000     5.679000000
O    -4.390000000     2.407000000     3.452000000
H    -4.561000000     1.490000000     3.239000000
H    -3.976000000     2.379000000     4.315000000
O     1.863000000    -0.448000000     3.307000000
H     1.195000000    -0.219000000     2.661000000
H     1.384000000    -0.911000000     3.994000000
O    -0.274000000    -0.367000000    -4.272000000
H    -0.375000000     0.575000000    -4.138000000
H     0.291000000    -0.440000000    -5.042000000
O    -5.794000000    -3.526000000     1.216000000
H    -5.485000000    -4.369000000     1.547000000
H    -5.006000000    -2.984000000     1.171000000
O     8.213000000    -2.647000000    -0.465000000
H     7.624000000    -2.136000000     0.090000000
H     8.457000000    -2.048000000    -1.171000000
O     2.097000000     3.649000000     4.060000000
H     1.698000000     2.948000000     4.576000000
H     3.029000000     3.600000000     4.270000000
O    -4.266000000     3.338000000    -4.794000000
H    -3.785000000     4.139000000    -4.585000000
H    -3.603000000     2.649000000    -4.778000000
O     0.373000000    -2.806000000    -6.077000000
H     0.996000000    -3.532000000    -6.108000000
H     0.145000000    -2.726000000    -5.150000000
O    -2.890000000    -7.041000000    -0.519000000
H    -2.680000000    -7.319000000     0.373000000
H    -2.743000000    -6.095000000    -0.516000000
O     1.963000000    -5.965000000     1.341000000
H     2.300000000    -5.979000000     0.445000000
H     1.884000000    -5.035000000     1.552000000
O     4.239000000    -0.801000000     1.943000000
H     3.918000000    -1.320000000     1.205000000
H     3.521000000    -0.813000000     2.575000000
O     3.376000000     3.664000000    -2.647000000
H     3.276000000     3.262000000    -1.784000000
H     4.289000000     3.949000000    -2.674000000
O    -6.984000000     0.113000000     1.295000000
H    -7.061000000     1.063000000     1.214000000
H    -6.237000000    -0.115000000     0.741000000
O     0.239000000    -2.921000000    -3.386000000
H    -0.018000000    -2.004000000    -3.480000000
H     0.845000000    -2.925000000    -2.645000000
O    -2.208000000    -4.252000000    -4.253000000
H    -2.514000000    -3.432000000    -4.640000000
H    -1.255000000    -4.211000000    -4.327000000
O    -0.888000000     6.497000000     2.923000000
H    -0.363000000     7.298000000     2.920000000
H    -0.318000000     5.836000000     2.529000000
O    -0.780000000     4.042000000     4.811000000
H    -0.114000000     3.436000000     4.488000000
H    -1.136000000     4.450000000     4.021000000
O     5.226000000    -5.596000000    -2.611000000
H     4.315000000    -5.545000000    -2.322000000
H     5.244000000    -5.111000000    -3.436000000
O     4.162000000     2.471000000    -0.428000000
H     5.109000000     2.468000000    -0.566000000
H     3.960000000     1.582000000    -0.136000000
O    -4.345000000    -1.601000000    -2.350000000
H    -3.954000000    -1.936000000    -1.543000000
H    -4.998000000    -2.259000000    -2.589000000
O    -1.042000000     0.933000000     3.878000000
H    -1.597000000     0.172000000     4.048000000
H    -1.412000000     1.627000000     4.424000000
O    -4.203000000     3.277000000     0.766000000
H    -4.123000000     2.468000000     0.259000000
H    -4.212000000     2.987000000     1.678000000
O     1.992000000    -5.053000000    -6.326000000
H     2.535000000    -4.710000000    -5.616000000
H     2.542000000    -5.711000000    -6.751000000
O     3.073000000    -3.519000000    -4.111000000
H     2.707000000    -3.542000000    -3.227000000
H     3.367000000    -2.616000000    -4.226000000
O     2.357000000    -5.694000000    -1.452000000
H     1.577000000    -5.931000000    -1.954000000
H     2.345000000    -4.737000000    -1.428000000
O    -2.494000000     5.447000000     0.757000000
H    -2.970000000     4.626000000     0.890000000
H    -2.519000000     5.878000000     1.611000000
O     7.424000000     0.167000000    -2.935000000
H     6.613000000    -0.296000000    -2.725000000
H     7.143000000     0.914000000    -3.463000000
O    -3.870000000    -0.069000000     1.556000000
H    -4.436000000     0.088000000     0.801000000
H    -3.507000000    -0.942000000     1.406000000
O    -5.679000000     2.816000000    -2.399000000
H    -5.889000000     3.743000000    -2.285000000
H    -5.162000000     2.785000000    -3.205000000
O     4.496000000    -4.411000000     0.340000000
H     4.075000000    -3.575000000     0.141000000
H     4.568000000    -4.851000000    -0.508000000
O     1.598000000    -3.401000000     2.665000000
H     2.092000000    -2.853000000     2.056000000
H     1.968000000    -3.198000000     3.524000000
O     0.546000000     4.489000000     1.963000000
H     1.202000000     4.979000000     1.468000000
H     1.055000000     3.938000000     2.557000000
O    -0.051000000     4.293000000    -1.182000000
H     0.409000000     5.088000000    -0.913000000
H    -0.352000000     3.902000000    -0.362000000
O    -2.991000000    -2.709000000     1.355000000
H    -2.851000000    -2.967000000     0.443000000
H    -2.243000000    -3.078000000     1.825000000
O     0.629000000     2.917000000    -3.504000000
H     0.346000000     3.028000000    -2.596000000
H     1.225000000     3.650000000    -3.660000000
