158
-3054.07519
C     1.215000000     0.644000000    -0.499000000
H     1.918000000     1.222000000    -1.093000000
C     0.049000000     1.348000000    -0.174000000
H    -0.187000000     2.375000000    -0.441000000
C    -0.992000000     0.615000000     0.373000000
H    -1.983000000     1.049000000     0.542000000
C    -0.913000000    -0.724000000     0.555000000
H    -1.793000000    -1.268000000     0.888000000
C     0.271000000    -1.384000000     0.191000000
H     0.364000000    -2.431000000     0.467000000
C     1.416000000    -0.758000000    -0.313000000
C     2.640000000    -1.495000000    -0.832000000
O     2.737000000    -2.702000000    -0.767000000
O     3.585000000    -0.852000000    -1.264000000
O    -6.293000000    -0.272000000     4.092000000
H    -7.189000000    -0.053000000     3.838000000
H    -5.743000000     0.243000000     3.502000000
O    -0.628000000     3.803000000     2.750000000
H    -0.522000000     4.218000000     3.606000000
H    -1.221000000     3.069000000     2.911000000
O    -5.963000000     3.560000000    -1.943000000
H    -6.216000000     3.921000000    -2.792000000
H    -5.101000000     3.174000000    -2.093000000
O     2.136000000    -4.400000000     1.212000000
H     2.330000000    -3.674000000     0.619000000
H     2.920000000    -4.481000000     1.756000000
O     3.953000000    -0.568000000    -5.889000000
H     4.774000000    -0.658000000    -6.373000000
H     3.752000000    -1.455000000    -5.591000000
O    -3.257000000    -2.804000000     2.763000000
H    -2.933000000    -3.642000000     2.434000000
H    -4.024000000    -2.615000000     2.222000000
O     5.296000000     1.467000000    -0.858000000
H     4.964000000     1.880000000    -0.060000000
H     4.675000000     0.762000000    -1.039000000
O    -4.792000000     4.827000000     2.375000000
H    -4.101000000     5.324000000     1.937000000
H    -5.174000000     4.287000000     1.683000000
O     8.081000000    -1.918000000    -0.068000000
H     8.272000000    -1.701000000     0.845000000
H     7.957000000    -1.070000000    -0.495000000
O    -2.153000000     3.290000000    -4.008000000
H    -2.543000000     3.487000000    -4.860000000
H    -1.459000000     3.942000000    -3.907000000
O     6.878000000    -1.893000000     2.860000000
H     7.390000000    -1.097000000     3.005000000
H     6.422000000    -1.736000000     2.033000000
O     2.560000000    -6.720000000    -2.704000000
H     2.076000000    -6.604000000    -1.887000000
H     1.941000000    -6.461000000    -3.388000000
O    -4.020000000     3.206000000     5.346000000
H    -3.373000000     2.821000000     4.755000000
H    -4.300000000     2.478000000     5.901000000
O     0.110000000     0.521000000     3.654000000
H     0.265000000     0.375000000     2.721000000
H    -0.605000000    -0.076000000     3.874000000
O     2.680000000     0.355000000    -3.514000000
H     3.149000000    -0.033000000    -4.253000000
H     3.136000000     0.022000000    -2.741000000
O    -1.665000000    -1.433000000     4.717000000
H    -1.998000000    -1.907000000     3.955000000
H    -2.213000000    -1.731000000     5.443000000
O     3.355000000    -0.042000000     2.366000000
H     3.361000000     0.782000000     1.879000000
H     3.701000000    -0.687000000     1.750000000
O    -6.776000000    -0.642000000     0.288000000
H    -7.359000000    -0.157000000     0.872000000
H    -6.855000000    -0.195000000    -0.555000000
O     1.687000000     4.712000000     1.171000000
H     1.086000000     4.018000000     1.442000000
H     1.701000000     5.319000000     1.911000000
O     6.003000000     1.264000000    -4.490000000
H     5.324000000     1.936000000    -4.427000000
H     5.625000000     0.501000000    -4.053000000
O     5.338000000    -1.444000000    -3.030000000
H     5.166000000    -2.334000000    -3.336000000
H     4.631000000    -1.263000000    -2.409000000
O    -0.193000000     4.902000000    -3.162000000
H     0.402000000     5.271000000    -2.509000000
H    -0.438000000     5.647000000    -3.710000000
O     4.610000000    -4.205000000     2.200000000
H     5.422000000    -4.679000000     2.375000000
H     4.892000000    -3.396000000     1.774000000
O     2.020000000    -1.618000000     4.319000000
H     2.611000000    -1.059000000     3.815000000
H     1.229000000    -1.091000000     4.430000000
O     5.896000000     4.043000000    -1.634000000
H     5.768000000     3.101000000    -1.525000000
H     6.824000000     4.135000000    -1.851000000
O     1.182000000    -6.332000000    -0.450000000
H     1.425000000    -5.602000000     0.119000000
H     1.561000000    -7.102000000    -0.027000000
O    -5.449000000    -2.725000000     1.159000000
H    -6.012000000    -3.411000000     0.802000000
H    -5.919000000    -1.911000000     0.978000000
O    -0.057000000    -1.110000000    -3.156000000
H     0.460000000    -0.339000000    -3.390000000
H    -0.656000000    -0.799000000    -2.478000000
O    -2.734000000    -5.007000000     1.328000000
H    -2.748000000    -4.662000000     0.435000000
H    -3.178000000    -5.853000000     1.265000000
O    -1.441000000    -5.928000000    -1.417000000
H    -0.551000000    -6.091000000    -1.107000000
H    -1.334000000    -5.689000000    -2.338000000
O    -4.130000000    -0.200000000    -0.883000000
H    -4.337000000    -0.586000000    -1.734000000
H    -3.920000000     0.713000000    -1.079000000
O    -3.643000000    -3.101000000    -0.700000000
H    -4.236000000    -3.178000000     0.048000000
H    -3.596000000    -2.161000000    -0.871000000
O     0.751000000     3.471000000    -5.543000000
H    -0.045000000     2.948000000    -5.639000000
H     0.727000000     3.781000000    -4.638000000
O     6.462000000    -4.993000000    -3.414000000
H     5.693000000    -4.952000000    -2.845000000
H     7.144000000    -4.529000000    -2.928000000
O     3.725000000     2.536000000     1.197000000
H     2.887000000     2.950000000     0.988000000
H     4.149000000     3.148000000     1.799000000
O    -5.052000000     1.106000000     1.837000000
H    -5.187000000     0.428000000     1.175000000
H    -5.465000000     1.887000000     1.468000000
O    -2.507000000     4.610000000     0.166000000
H    -1.831000000     4.122000000     0.636000000
H    -2.306000000     5.529000000     0.343000000
O     3.575000000    -3.485000000    -4.635000000
H     2.689000000    -3.637000000    -4.965000000
H     3.532000000    -3.727000000    -3.710000000
O     1.141000000    -3.606000000    -3.057000000
H     0.681000000    -2.813000000    -3.332000000
H     1.571000000    -3.362000000    -2.238000000
O     4.083000000    -4.494000000    -2.155000000
H     3.529000000    -5.274000000    -2.176000000
H     3.567000000    -3.847000000    -1.674000000
O     7.821000000     0.579000000    -0.703000000
H     6.926000000     0.799000000    -0.960000000
H     8.104000000     1.318000000    -0.164000000
O    -2.705000000     2.003000000     3.068000000
H    -3.530000000     1.993000000     2.583000000
H    -2.473000000     1.080000000     3.166000000
O    -3.507000000     2.441000000    -1.877000000
H    -3.123000000     3.035000000    -1.232000000
H    -3.073000000     2.668000000    -2.699000000
O     5.051000000    -1.902000000     0.665000000
H     5.735000000    -2.207000000     0.069000000
H     4.337000000    -1.627000000     0.090000000
O    -6.583000000     2.990000000     0.916000000
H    -6.584000000     3.314000000     0.015000000
H    -7.470000000     2.655000000     1.051000000
O    -0.145000000    -5.559000000    -4.199000000
H     0.296000000    -4.790000000    -3.838000000
H     0.472000000    -5.909000000    -4.842000000
O     1.573000000     5.611000000    -1.275000000
H     1.656000000     5.030000000    -0.519000000
H     1.541000000     6.491000000    -0.898000000
O    -0.225000000    -4.640000000     2.944000000
H     0.391000000    -4.027000000     2.542000000
H    -1.025000000    -4.548000000     2.426000000
