158
-3023.35211
C     0.966000000     1.012000000    -0.558000000
H     1.597000000     1.836000000    -0.882000000
C    -0.152000000     1.277000000     0.258000000
H    -0.442000000     2.298000000     0.492000000
C    -1.097000000     0.253000000     0.525000000
H    -1.941000000     0.483000000     1.151000000
C    -0.678000000    -1.038000000     0.359000000
H    -1.365000000    -1.778000000     0.760000000
C     0.472000000    -1.369000000    -0.327000000
H     0.665000000    -2.407000000    -0.587000000
C     1.304000000    -0.359000000    -0.783000000
C     2.592000000    -0.695000000    -1.681000000
O     2.735000000    -1.785000000    -2.210000000
O     3.481000000     0.099000000    -1.645000000
O    -7.207000000     1.224000000     2.932000000
H    -8.141000000     1.425000000     2.887000000
H    -6.874000000     1.431000000     2.059000000
O    -1.648000000     4.293000000     2.787000000
H    -0.960000000     3.790000000     3.222000000
H    -2.339000000     3.654000000     2.612000000
O    -3.177000000    -5.718000000     1.021000000
H    -4.098000000    -5.866000000     1.234000000
H    -2.803000000    -5.343000000     1.819000000
O     2.649000000    -3.957000000    -0.389000000
H     2.625000000    -3.417000000    -1.179000000
H     2.968000000    -3.368000000     0.295000000
O     2.845000000    -6.586000000     0.318000000
H     2.652000000    -6.579000000     1.256000000
H     2.759000000    -5.671000000     0.050000000
O    -3.372000000    -1.228000000     2.825000000
H    -3.336000000    -1.327000000     1.874000000
H    -4.256000000    -1.506000000     3.062000000
O     4.340000000     2.373000000    -0.511000000
H     5.228000000     2.493000000    -0.846000000
H     4.111000000     1.476000000    -0.757000000
O    -2.008000000    -4.661000000     3.757000000
H    -1.592000000    -3.830000000     3.529000000
H    -2.891000000    -4.419000000     4.034000000
O     7.097000000     0.990000000    -0.006000000
H     7.644000000     1.774000000     0.049000000
H     6.639000000     0.958000000     0.834000000
O     3.438000000     1.307000000     1.920000000
H     3.553000000     1.807000000     1.112000000
H     4.177000000     0.698000000     1.932000000
O     1.555000000    -5.462000000    -4.469000000
H     1.363000000    -6.393000000    -4.588000000
H     0.922000000    -5.013000000    -5.030000000
O    -3.009000000     5.787000000     5.142000000
H    -3.251000000     4.987000000     5.607000000
H    -2.687000000     5.484000000     4.293000000
O     0.943000000     0.012000000     3.915000000
H     1.298000000    -0.220000000     3.057000000
H     0.054000000    -0.343000000     3.911000000
O     0.756000000     1.728000000    -4.194000000
H     1.069000000     2.618000000    -4.034000000
H     1.466000000     1.309000000    -4.680000000
O    -1.640000000    -0.373000000     4.871000000
H    -2.050000000    -0.838000000     4.142000000
H    -1.125000000    -1.042000000     5.322000000
O    -2.887000000    -3.205000000    -4.018000000
H    -2.829000000    -2.400000000    -3.503000000
H    -2.386000000    -3.018000000    -4.812000000
O    -0.094000000     6.504000000     2.072000000
H    -0.699000000     5.960000000     2.577000000
H    -0.498000000     6.572000000     1.207000000
O     7.381000000     1.765000000    -3.732000000
H     6.677000000     2.252000000    -4.160000000
H     6.934000000     1.213000000    -3.090000000
O     3.858000000     1.739000000    -3.821000000
H     3.746000000     1.015000000    -4.438000000
H     3.592000000     1.376000000    -2.976000000
O     0.173000000    -2.765000000     3.189000000
H     0.188000000    -3.106000000     2.294000000
H     1.079000000    -2.842000000     3.489000000
O     4.300000000    -3.050000000     1.715000000
H     3.894000000    -3.912000000     1.800000000
H     5.049000000    -3.078000000     2.310000000
O    -4.906000000    -0.626000000     5.946000000
H    -4.012000000    -0.963000000     5.881000000
H    -4.873000000     0.002000000     6.667000000
O     0.151000000    -5.654000000    -1.904000000
H     0.935000000    -6.144000000    -1.653000000
H     0.330000000    -5.359000000    -2.797000000
O    -5.708000000    -3.187000000     2.086000000
H    -5.201000000    -3.338000000     1.288000000
H    -6.608000000    -3.077000000     1.781000000
O    -5.616000000    -0.527000000     0.852000000
H    -6.452000000    -0.979000000     0.729000000
H    -5.846000000     0.402000000     0.869000000
O     5.224000000     3.827000000    -5.080000000
H     4.754000000     4.612000000    -4.798000000
H     4.683000000     3.100000000    -4.772000000
O    -1.045000000     0.764000000    -2.528000000
H    -0.471000000     1.206000000    -3.154000000
H    -0.565000000     0.793000000    -1.700000000
O    -3.998000000    -2.412000000    -0.324000000
H    -4.722000000    -1.848000000    -0.052000000
H    -3.561000000    -1.921000000    -1.020000000
O    -3.102000000    -0.892000000    -2.553000000
H    -2.339000000    -0.316000000    -2.504000000
H    -3.831000000    -0.306000000    -2.754000000
O    -4.524000000     3.373000000    -0.566000000
H    -3.659000000     3.777000000    -0.496000000
H    -4.550000000     3.013000000    -1.452000000
O    -5.247000000     1.164000000    -2.319000000
H    -5.525000000     1.045000000    -3.227000000
H    -5.999000000     0.883000000    -1.798000000
O    -0.524000000     6.649000000    -0.832000000
H     0.269000000     7.169000000    -0.961000000
H    -1.104000000     6.916000000    -1.545000000
O    -4.659000000    -4.097000000     4.406000000
H    -4.553000000    -3.267000000     4.871000000
H    -5.225000000    -3.885000000     3.663000000
O     5.989000000    -2.599000000    -5.349000000
H     5.168000000    -3.041000000    -5.131000000
H     6.653000000    -3.062000000    -4.839000000
O     1.859000000     4.642000000     1.433000000
H     1.093000000     5.176000000     1.644000000
H     1.743000000     3.843000000     1.947000000
O    -6.692000000     2.303000000     0.519000000
H    -5.979000000     2.845000000     0.182000000
H    -7.487000000     2.709000000     0.173000000
O     0.331000000     2.802000000     3.976000000
H     0.157000000     2.947000000     4.906000000
H     0.472000000     1.858000000     3.903000000
O     3.033000000    -0.495000000    -5.174000000
H     2.220000000    -0.832000000    -5.550000000
H     3.606000000    -1.260000000    -5.119000000
O     0.306000000    -1.952000000    -3.967000000
H    -0.121000000    -1.281000000    -3.435000000
H     1.047000000    -2.244000000    -3.435000000
O     3.377000000    -3.361000000    -4.512000000
H     2.838000000    -4.138000000    -4.367000000
H     3.127000000    -2.762000000    -3.809000000
O    -2.802000000     1.861000000     3.110000000
H    -3.250000000     1.159000000     2.638000000
H    -2.454000000     1.438000000     3.894000000
O     5.946000000    -0.213000000    -2.468000000
H     6.470000000    -0.138000000    -1.670000000
H     5.040000000    -0.141000000    -2.167000000
O     8.101000000    -1.981000000    -3.044000000
H     7.347000000    -1.392000000    -3.066000000
H     7.989000000    -2.484000000    -2.237000000
O    -0.103000000    -3.651000000    -5.871000000
H    -0.097000000    -3.128000000    -6.673000000
H    -0.047000000    -3.007000000    -5.166000000
O     3.106000000     6.437000000    -0.381000000
H     2.683000000     5.871000000     0.265000000
H     2.602000000     7.250000000    -0.354000000
O    -0.357000000    -4.544000000     1.067000000
H    -0.118000000    -4.805000000     0.177000000
H    -0.825000000    -5.300000000     1.421000000
O     7.375000000    -1.891000000    -0.152000000
H     8.011000000    -2.053000000     0.545000000
H     6.826000000    -1.183000000     0.186000000
O     1.995000000     4.032000000    -3.554000000
H     2.533000000     3.270000000    -3.340000000
H     2.507000000     4.780000000    -3.248000000
