158
-3042.09618
C     0.591000000     1.359000000    -0.269000000
H     0.881000000     2.364000000    -0.562000000
C    -0.649000000     1.077000000     0.374000000
H    -1.261000000     1.918000000     0.688000000
C    -1.055000000    -0.210000000     0.596000000
H    -2.042000000    -0.334000000     1.000000000
C    -0.325000000    -1.286000000     0.161000000
H    -0.664000000    -2.317000000     0.222000000
C     0.905000000    -1.021000000    -0.451000000
H     1.534000000    -1.892000000    -0.617000000
C     1.423000000     0.294000000    -0.652000000
C     2.653000000     0.549000000    -1.397000000
O     3.560000000    -0.267000000    -1.439000000
O     2.886000000     1.633000000    -1.912000000
O    -4.684000000     3.037000000     3.503000000
H    -4.107000000     2.563000000     2.903000000
H    -4.154000000     3.171000000     4.289000000
O    -1.652000000    -5.419000000     0.481000000
H    -0.793000000    -5.002000000     0.410000000
H    -1.997000000    -5.410000000    -0.411000000
O     4.442000000    -2.661000000    -0.949000000
H     4.328000000    -1.711000000    -0.983000000
H     3.556000000    -3.005000000    -0.842000000
O    -3.570000000    -0.518000000     3.320000000
H    -4.454000000    -0.870000000     3.217000000
H    -3.510000000    -0.290000000     4.247000000
O     4.471000000     3.107000000    -0.035000000
H     3.840000000     3.809000000     0.124000000
H     3.989000000     2.465000000    -0.556000000
O     5.098000000     0.018000000     0.871000000
H     4.347000000    -0.245000000     1.403000000
H     4.748000000     0.092000000    -0.017000000
O     0.950000000    -2.347000000     3.918000000
H     1.191000000    -3.023000000     3.285000000
H     1.217000000    -2.705000000     4.765000000
O    -2.062000000     4.560000000     3.405000000
H    -1.169000000     4.243000000     3.270000000
H    -2.335000000     4.882000000     2.546000000
O     2.483000000    -0.243000000     2.334000000
H     1.960000000    -1.001000000     2.593000000
H     1.838000000     0.416000000     2.077000000
O    -1.414000000    -3.709000000     5.101000000
H    -1.211000000    -3.390000000     5.980000000
H    -0.764000000    -3.290000000     4.538000000
O     3.301000000    -1.258000000    -3.844000000
H     3.467000000    -0.443000000    -4.316000000
H     3.598000000    -1.084000000    -2.951000000
O    -0.444000000     0.302000000     4.265000000
H    -1.298000000    -0.091000000     4.086000000
H     0.185000000    -0.390000000     4.061000000
O    -2.680000000    -4.796000000    -2.043000000
H    -2.318000000    -4.811000000    -2.929000000
H    -3.262000000    -4.036000000    -2.034000000
O     2.229000000     4.838000000     0.601000000
H     2.646000000     4.781000000     1.461000000
H     1.291000000     4.792000000     0.786000000
O     1.342000000     6.864000000    -1.873000000
H     2.139000000     6.353000000    -2.017000000
H     0.647000000     6.341000000    -2.273000000
O     7.201000000    -0.421000000    -4.724000000
H     7.954000000     0.130000000    -4.936000000
H     7.380000000    -0.741000000    -3.840000000
O     5.700000000     1.194000000    -2.636000000
H     6.215000000     0.388000000    -2.674000000
H     4.808000000     0.899000000    -2.452000000
O     1.999000000    -4.071000000     1.973000000
H     1.615000000    -4.043000000     1.096000000
H     2.584000000    -4.829000000     1.953000000
O     5.983000000    -3.799000000     0.851000000
H     5.502000000    -3.423000000     0.114000000
H     6.904000000    -3.706000000     0.608000000
O    -4.314000000    -0.514000000     5.860000000
H    -4.867000000     0.248000000     6.035000000
H    -3.777000000    -0.605000000     6.647000000
O     4.638000000    -2.671000000     2.833000000
H     3.722000000    -2.839000000     2.611000000
H     5.127000000    -2.957000000     2.061000000
O     3.399000000     4.909000000    -2.364000000
H     3.376000000     4.286000000    -1.638000000
H     4.023000000     4.531000000    -2.984000000
O     1.885000000    -3.674000000    -2.931000000
H     1.357000000    -3.970000000    -3.673000000
H     2.711000000    -3.391000000    -3.323000000
O     3.941000000     3.841000000    -5.945000000
H     4.818000000     3.810000000    -5.563000000
H     3.371000000     3.483000000    -5.265000000
O    -2.285000000     0.048000000    -1.999000000
H    -1.436000000    -0.382000000    -1.903000000
H    -2.355000000     0.614000000    -1.230000000
O    -4.685000000    -4.126000000     1.417000000
H    -5.200000000    -3.447000000     0.980000000
H    -3.775000000    -3.892000000     1.233000000
O    -6.392000000    -1.924000000     0.647000000
H    -6.863000000    -2.338000000    -0.076000000
H    -6.485000000    -0.985000000     0.487000000
O    -3.215000000     3.314000000    -0.823000000
H    -4.052000000     3.677000000    -1.111000000
H    -3.452000000     2.649000000    -0.177000000
O    -6.564000000     0.900000000     0.449000000
H    -6.691000000     1.460000000    -0.317000000
H    -7.401000000     0.934000000     0.912000000
O    -4.340000000    -2.622000000    -2.533000000
H    -3.884000000    -1.783000000    -2.601000000
H    -5.266000000    -2.387000000    -2.477000000
O     5.645000000     3.731000000    -3.653000000
H     5.630000000     2.879000000    -3.218000000
H     6.567000000     3.987000000    -3.647000000
O    -0.818000000     4.970000000     0.069000000
H    -1.711000000     4.652000000    -0.065000000
H    -0.355000000     4.728000000    -0.732000000
O    -4.315000000    -4.015000000     4.118000000
H    -3.388000000    -4.253000000     4.133000000
H    -4.621000000    -4.296000000     3.256000000
O     0.387000000     3.097000000     4.204000000
H     0.320000000     3.216000000     5.152000000
H    -0.004000000     2.239000000     4.041000000
O    -2.448000000     2.588000000    -3.361000000
H    -2.556000000     2.959000000    -2.486000000
H    -2.184000000     1.681000000    -3.207000000
O     4.095000000     0.471000000    -5.764000000
H     4.784000000     1.135000000    -5.740000000
H     4.434000000    -0.206000000    -6.349000000
O     0.054000000     4.339000000    -2.557000000
H     0.557000000     3.541000000    -2.720000000
H    -0.489000000     4.444000000    -3.338000000
O     7.926000000    -0.042000000     1.060000000
H     6.998000000    -0.052000000     0.827000000
H     8.257000000     0.776000000     0.688000000
O     7.453000000     2.481000000    -0.662000000
H     6.727000000     1.942000000    -0.973000000
H     8.225000000     2.118000000    -1.097000000
O     5.868000000    -2.833000000    -5.204000000
H     5.521000000    -3.334000000    -4.466000000
H     5.879000000    -1.927000000    -4.896000000
O     5.098000000     2.883000000     2.637000000
H     5.739000000     3.589000000     2.558000000
H     5.110000000     2.452000000     1.783000000
O    -4.042000000     1.340000000     1.033000000
H    -4.962000000     1.096000000     0.937000000
H    -3.724000000     0.796000000     1.754000000
O     0.460000000    -1.350000000    -3.928000000
H     0.393000000    -2.103000000    -3.340000000
H     1.385000000    -1.316000000    -4.170000000
O     7.697000000    -1.095000000    -2.110000000
H     8.426000000    -1.668000000    -2.349000000
H     8.108000000    -0.251000000    -1.921000000
O     5.306000000    -4.581000000    -3.009000000
H     5.049000000    -4.021000000    -2.276000000
H     5.114000000    -5.470000000    -2.708000000
O    -0.450000000     7.599000000     0.332000000
H     0.362000000     7.757000000    -0.150000000
H    -0.566000000     6.649000000     0.300000000
O     1.197000000    -4.469000000    -0.461000000
H     1.379000000    -4.376000000    -1.396000000
H     1.271000000    -5.409000000    -0.295000000
O     2.075000000     2.858000000    -3.943000000
H     2.353000000     2.176000000    -3.332000000
H     2.244000000     3.678000000    -3.478000000
