158
-3037.58784
C     0.703000000     0.588000000    -1.147000000
H     1.199000000     0.894000000    -2.065000000
C     1.027000000    -0.633000000    -0.597000000
H     1.878000000    -1.140000000    -1.044000000
C     0.332000000    -1.066000000     0.541000000
H     0.686000000    -1.944000000     1.013000000
C    -0.769000000    -0.363000000     1.064000000
H    -1.296000000    -0.757000000     1.929000000
C    -1.093000000     0.873000000     0.484000000
H    -1.957000000     1.386000000     0.896000000
C    -0.302000000     1.401000000    -0.597000000
C    -0.689000000     2.755000000    -1.201000000
O    -1.503000000     3.465000000    -0.639000000
O    -0.108000000     3.162000000    -2.235000000
O     0.393000000     2.827000000    -6.699000000
H    -0.223000000     3.054000000    -6.002000000
H     1.175000000     2.524000000    -6.237000000
O    -4.481000000     1.418000000    -1.372000000
H    -5.429000000     1.328000000    -1.473000000
H    -4.332000000     1.340000000    -0.430000000
O    -2.705000000    -5.228000000     1.488000000
H    -2.930000000    -4.316000000     1.676000000
H    -2.060000000    -5.458000000     2.156000000
O    -3.373000000     3.668000000    -2.476000000
H    -4.028000000     3.005000000    -2.259000000
H    -2.722000000     3.598000000    -1.778000000
O     4.155000000    -4.254000000     1.767000000
H     4.867000000    -3.697000000     1.453000000
H     4.594000000    -5.012000000     2.152000000
O    -5.122000000     0.036000000     5.654000000
H    -4.719000000     0.592000000     6.321000000
H    -4.600000000     0.191000000     4.866000000
O     5.345000000     4.078000000    -2.026000000
H     5.724000000     3.369000000    -2.546000000
H     4.417000000     4.079000000    -2.262000000
O    -2.237000000     6.090000000    -1.109000000
H    -2.196000000     5.143000000    -0.977000000
H    -3.091000000     6.238000000    -1.515000000
O    -4.384000000    -2.424000000     0.854000000
H    -5.027000000    -3.117000000     1.000000000
H    -4.222000000    -2.442000000    -0.089000000
O     0.158000000     0.056000000     5.089000000
H    -0.210000000    -0.823000000     5.007000000
H    -0.595000000     0.614000000     5.285000000
O    -1.678000000    -1.099000000    -2.110000000
H    -1.166000000    -0.646000000    -1.440000000
H    -1.438000000    -2.021000000    -2.013000000
O     3.166000000    -3.824000000    -1.271000000
H     3.755000000    -4.289000000    -0.677000000
H     3.594000000    -2.981000000    -1.421000000
O     0.548000000     6.036000000    -0.607000000
H    -0.400000000     6.163000000    -0.645000000
H     0.689000000     5.515000000     0.183000000
O     1.507000000     5.018000000     3.632000000
H     1.216000000     5.806000000     4.092000000
H     0.825000000     4.856000000     2.980000000
O    -2.556000000     5.450000000    -4.640000000
H    -2.791000000     4.733000000    -4.050000000
H    -1.643000000     5.644000000    -4.427000000
O     2.234000000    -3.504000000     6.020000000
H     1.737000000    -2.933000000     6.606000000
H     1.760000000    -3.467000000     5.190000000
O     1.035000000    -4.883000000    -2.718000000
H     1.533000000    -4.587000000    -1.956000000
H     1.367000000    -4.352000000    -3.442000000
O    -1.003000000    -6.789000000     2.885000000
H    -0.347000000    -7.445000000     2.652000000
H    -1.838000000    -7.253000000     2.820000000
O     0.057000000     5.479000000    -3.525000000
H     0.491000000     6.135000000    -2.979000000
H     0.037000000     4.691000000    -2.982000000
O     3.678000000    -2.661000000    -5.364000000
H     4.233000000    -2.832000000    -4.603000000
H     2.791000000    -2.861000000    -5.062000000
O    -3.470000000    -2.504000000     3.394000000
H    -4.346000000    -2.836000000     3.589000000
H    -3.554000000    -2.099000000     2.530000000
O    -2.523000000     0.934000000     4.803000000
H    -2.758000000     1.204000000     5.691000000
H    -2.468000000    -0.021000000     4.850000000
O     2.530000000     3.076000000    -2.368000000
H     1.607000000     3.306000000    -2.266000000
H     2.825000000     2.869000000    -1.482000000
O     3.050000000     0.174000000     4.791000000
H     2.096000000     0.218000000     4.860000000
H     3.215000000     0.002000000     3.864000000
O     0.952000000    -2.951000000    -4.763000000
H     0.544000000    -2.088000000    -4.838000000
H     0.436000000    -3.511000000    -5.342000000
O     2.348000000     2.664000000     1.256000000
H     2.958000000     2.094000000     0.788000000
H     2.906000000     3.314000000     1.683000000
O     4.771000000    -1.748000000    -2.115000000
H     5.484000000    -1.744000000    -1.476000000
H     5.024000000    -1.090000000    -2.762000000
O    -1.180000000     2.255000000    -4.666000000
H    -0.758000000     2.618000000    -3.887000000
H    -2.110000000     2.226000000    -4.443000000
O     2.889000000    -0.399000000     2.286000000
H     2.084000000    -0.001000000     1.954000000
H     3.568000000    -0.108000000     1.678000000
O     1.097000000    -4.618000000     0.727000000
H     1.867000000    -4.143000000     0.413000000
H     0.958000000    -4.289000000     1.614000000
O     2.720000000     2.546000000    -4.961000000
H     2.578000000     2.794000000    -4.048000000
H     2.976000000     3.361000000    -5.394000000
O     1.987000000    -0.723000000    -6.708000000
H     2.698000000    -1.076000000    -6.173000000
H     1.268000000    -0.586000000    -6.091000000
O     0.185000000     4.331000000     1.356000000
H    -0.407000000     3.971000000     0.696000000
H     0.935000000     3.736000000     1.356000000
O     3.987000000     1.126000000    -0.149000000
H     4.876000000     1.477000000    -0.093000000
H     4.025000000     0.492000000    -0.864000000
O    -3.353000000    -4.597000000    -2.181000000
H    -3.374000000    -5.112000000    -2.988000000
H    -2.472000000    -4.224000000    -2.158000000
O    -2.782000000     3.612000000     4.305000000
H    -2.778000000     2.660000000     4.403000000
H    -2.652000000     3.757000000     3.368000000
O     0.385000000    -7.318000000    -0.057000000
H     0.485000000    -6.383000000     0.121000000
H     1.277000000    -7.629000000    -0.213000000
O    -1.197000000    -2.586000000     4.743000000
H    -1.960000000    -2.577000000     4.166000000
H    -1.098000000    -3.504000000     4.996000000
O    -4.432000000     0.525000000     1.305000000
H    -4.285000000    -0.421000000     1.304000000
H    -5.382000000     0.620000000     1.243000000
O    -4.734000000     5.633000000     2.490000000
H    -4.584000000     4.942000000     1.845000000
H    -3.881000000     6.056000000     2.591000000
O    -3.563000000     0.308000000    -3.706000000
H    -3.970000000     0.672000000    -2.920000000
H    -2.744000000    -0.078000000    -3.394000000
O     1.962000000    -3.284000000     3.179000000
H     1.882000000    -2.393000000     2.839000000
H     2.667000000    -3.675000000     2.662000000
O    -4.682000000     6.391000000    -2.274000000
H    -4.785000000     5.608000000    -2.814000000
H    -5.060000000     6.150000000    -1.428000000
O    -0.044000000    -0.483000000    -4.540000000
H    -0.554000000    -0.519000000    -3.730000000
H    -0.188000000     0.402000000    -4.874000000
O     2.541000000    -6.801000000     2.889000000
H     2.578000000    -5.941000000     2.470000000
H     2.912000000    -6.659000000     3.760000000
O     4.403000000     0.313000000    -4.296000000
H     4.697000000     0.090000000    -5.179000000
H     3.605000000     0.824000000    -4.431000000
O    -3.715000000     3.232000000     1.396000000
H    -3.131000000     3.225000000     0.638000000
H    -4.118000000     2.363000000     1.396000000
O    -0.854000000    -3.496000000    -1.492000000
H    -0.937000000    -4.016000000    -0.693000000
H    -0.170000000    -3.938000000    -1.995000000
