158
-3021.87397
C     1.334000000     0.244000000    -0.291000000
H     2.351000000     0.541000000    -0.536000000
C     0.268000000     1.075000000    -0.465000000
H     0.421000000     2.062000000    -0.894000000
C    -1.021000000     0.759000000    -0.123000000
H    -1.827000000     1.488000000    -0.231000000
C    -1.128000000    -0.461000000     0.411000000
H    -2.120000000    -0.762000000     0.739000000
C    -0.080000000    -1.351000000     0.626000000
H    -0.300000000    -2.372000000     0.927000000
C     1.163000000    -1.000000000     0.253000000
C     2.359000000    -1.959000000     0.353000000
O     2.240000000    -2.987000000     0.961000000
O     3.500000000    -1.648000000    -0.040000000
O     2.629000000    -7.021000000     3.297000000
H     3.298000000    -6.767000000     3.932000000
H     2.079000000    -7.648000000     3.767000000
O     7.989000000    -0.242000000     0.175000000
H     7.048000000    -0.086000000     0.252000000
H     8.057000000    -1.115000000    -0.211000000
O     4.176000000    -1.220000000    -2.501000000
H     4.011000000    -1.393000000    -1.574000000
H     4.978000000    -0.697000000    -2.508000000
O     4.109000000     1.525000000     2.136000000
H     4.804000000     2.180000000     2.188000000
H     3.298000000     2.035000000     2.135000000
O     5.625000000    -2.980000000     1.314000000
H     6.386000000    -2.952000000     0.734000000
H     4.877000000    -2.838000000     0.735000000
O     2.337000000    -4.330000000    -1.994000000
H     2.492000000    -4.430000000    -1.055000000
H     2.837000000    -3.551000000    -2.237000000
O    -0.586000000     6.455000000    -3.028000000
H    -0.970000000     6.802000000    -3.833000000
H    -0.109000000     5.674000000    -3.308000000
O     0.969000000    -7.185000000    -1.020000000
H     0.831000000    -6.599000000    -0.276000000
H     1.643000000    -6.752000000    -1.544000000
O     1.610000000     3.221000000     2.377000000
H     0.958000000     3.024000000     1.704000000
H     1.985000000     4.060000000     2.108000000
O     0.561000000     0.929000000    -4.960000000
H     0.177000000     0.697000000    -5.805000000
H     0.278000000     1.831000000    -4.808000000
O    -7.760000000     2.494000000     0.051000000
H    -8.660000000     2.780000000    -0.109000000
H    -7.242000000     2.950000000    -0.612000000
O     0.840000000     0.355000000     4.342000000
H     0.757000000    -0.025000000     5.217000000
H     1.103000000    -0.378000000     3.786000000
O     2.949000000     1.131000000    -3.674000000
H     2.100000000     1.064000000    -4.111000000
H     3.129000000     0.243000000    -3.364000000
O    -1.431000000    -3.372000000    -2.910000000
H    -0.985000000    -2.536000000    -3.051000000
H    -1.880000000    -3.264000000    -2.072000000
O    -4.527000000     4.368000000     1.977000000
H    -4.852000000     3.889000000     1.214000000
H    -4.976000000     3.966000000     2.721000000
O    -2.882000000     2.472000000    -5.327000000
H    -3.049000000     3.239000000    -4.779000000
H    -3.737000000     2.052000000    -5.418000000
O     1.317000000    -5.511000000     1.209000000
H     1.731000000    -5.780000000     2.029000000
H     1.245000000    -4.559000000     1.278000000
O     6.306000000     2.544000000    -1.335000000
H     5.955000000     2.129000000    -0.547000000
H     6.801000000     3.295000000    -1.010000000
O    -4.426000000     3.989000000    -0.966000000
H    -4.034000000     4.849000000    -0.812000000
H    -5.300000000     4.181000000    -1.305000000
O    -7.412000000    -1.097000000    -0.402000000
H    -6.597000000    -0.891000000    -0.860000000
H    -7.576000000    -2.017000000    -0.607000000
O    -1.214000000     4.768000000     4.683000000
H    -0.305000000     5.046000000     4.795000000
H    -1.248000000     4.415000000     3.793000000
O    -0.318000000    -0.851000000    -3.072000000
H    -0.085000000    -0.320000000    -2.311000000
H    -0.086000000    -0.306000000    -3.824000000
O    -5.626000000     0.642000000    -4.958000000
H    -5.903000000     0.692000000    -5.873000000
H    -4.925000000    -0.010000000    -4.955000000
O     2.049000000    -4.536000000     4.607000000
H     2.929000000    -4.331000000     4.291000000
H     1.493000000    -3.857000000     4.225000000
O    -6.392000000     2.165000000     2.621000000
H    -5.566000000     1.722000000     2.428000000
H    -6.713000000     2.456000000     1.768000000
O    -2.258000000    -5.753000000    -2.020000000
H    -1.561000000    -6.408000000    -2.044000000
H    -1.878000000    -4.982000000    -2.441000000
O    -5.337000000    -0.475000000    -2.121000000
H    -4.657000000    -1.121000000    -1.932000000
H    -4.909000000     0.163000000    -2.693000000
O    -1.641000000     3.945000000     2.095000000
H    -2.533000000     4.294000000     2.108000000
H    -1.381000000     3.987000000     1.175000000
O    -6.062000000    -1.848000000     2.961000000
H    -5.858000000    -2.615000000     2.427000000
H    -5.210000000    -1.456000000     3.154000000
O    -1.080000000     4.429000000    -0.614000000
H    -1.248000000     5.364000000    -0.735000000
H    -0.317000000     4.250000000    -1.164000000
O    -3.620000000     6.576000000    -0.258000000
H    -3.502000000     7.517000000    -0.125000000
H    -4.194000000     6.304000000     0.458000000
O    -2.976000000     4.832000000    -3.334000000
H    -3.071000000     5.777000000    -3.213000000
H    -3.132000000     4.463000000    -2.464000000
O     7.915000000    -3.065000000    -0.139000000
H     8.357000000    -2.857000000    -0.962000000
H     8.035000000    -4.009000000    -0.035000000
O     1.400000000     4.354000000    -2.491000000
H     2.216000000     3.982000000    -2.827000000
H     1.677000000     5.119000000    -1.986000000
O    -4.159000000     1.363000000     5.351000000
H    -3.375000000     1.453000000     4.808000000
H    -3.822000000     1.237000000     6.238000000
O    -5.954000000    -4.115000000     1.197000000
H    -5.074000000    -4.211000000     0.833000000
H    -6.095000000    -4.920000000     1.695000000
O    -2.630000000    -1.382000000     4.023000000
H    -3.082000000    -1.280000000     4.860000000
H    -2.346000000    -0.496000000     3.795000000
O     1.173000000    -2.430000000     3.295000000
H     0.265000000    -2.711000000     3.181000000
H     1.619000000    -2.734000000     2.505000000
O     4.391000000     3.376000000    -3.028000000
H     3.963000000     2.531000000    -3.166000000
H     4.887000000     3.263000000    -2.217000000
O     5.083000000    -0.736000000     3.385000000
H     4.484000000    -1.255000000     2.848000000
H     4.718000000     0.149000000     3.363000000
O     4.807000000    -3.851000000     3.812000000
H     5.097000000    -3.596000000     2.937000000
H     5.444000000    -4.509000000     4.094000000
O    -3.278000000    -4.317000000     0.859000000
H    -2.710000000    -5.044000000     0.607000000
H    -2.749000000    -3.797000000     1.464000000
O    -3.912000000    -2.679000000    -1.410000000
H    -3.778000000    -3.233000000    -0.641000000
H    -4.698000000    -3.034000000    -1.826000000
O    -1.499000000    -3.768000000     2.916000000
H    -1.653000000    -4.412000000     3.606000000
H    -1.656000000    -2.923000000     3.337000000
O     8.214000000    -1.911000000     3.018000000
H     8.582000000    -2.725000000     2.673000000
H     7.509000000    -1.690000000     2.409000000
O    -3.134000000    -0.746000000    -4.010000000
H    -3.200000000    -1.572000000    -4.489000000
H    -2.362000000    -0.852000000    -3.454000000
O     5.387000000     0.255000000    -0.020000000
H     4.778000000    -0.412000000    -0.338000000
H     4.999000000     0.563000000     0.800000000
O    -1.867000000     1.114000000     3.468000000
H    -1.740000000     1.969000000     3.056000000
H    -0.980000000     0.779000000     3.602000000
