158
-3042.25882
C     1.365000000    -0.661000000    -0.143000000
H     2.417000000    -0.918000000    -0.228000000
C     0.973000000     0.654000000    -0.473000000
H     1.716000000     1.380000000    -0.792000000
C    -0.303000000     1.169000000    -0.284000000
H    -0.528000000     2.190000000    -0.526000000
C    -1.300000000     0.267000000     0.068000000
H    -2.327000000     0.607000000     0.170000000
C    -0.970000000    -1.072000000     0.367000000
H    -1.777000000    -1.709000000     0.721000000
C     0.359000000    -1.502000000     0.372000000
C     0.764000000    -2.837000000     1.008000000
O    -0.114000000    -3.597000000     1.357000000
O     1.890000000    -3.222000000     0.911000000
O    -6.144000000     5.184000000    -0.165000000
H    -5.495000000     4.573000000     0.184000000
H    -5.652000000     5.729000000    -0.780000000
O     1.347000000     6.526000000    -0.195000000
H     0.770000000     7.269000000    -0.372000000
H     1.650000000     6.248000000    -1.059000000
O     3.798000000    -1.940000000     2.110000000
H     3.082000000    -2.461000000     1.749000000
H     3.753000000    -2.091000000     3.054000000
O     5.854000000     4.371000000     0.557000000
H     6.733000000     4.095000000     0.299000000
H     5.282000000     3.668000000     0.248000000
O     2.743000000     2.751000000     3.935000000
H     2.850000000     1.874000000     4.303000000
H     1.927000000     2.704000000     3.437000000
O     2.044000000    -5.902000000     1.046000000
H     2.292000000    -5.998000000     1.965000000
H     2.088000000    -4.960000000     0.883000000
O     3.681000000    -3.499000000    -1.269000000
H     3.166000000    -3.386000000    -0.470000000
H     4.510000000    -3.871000000    -0.970000000
O    -0.871000000     4.726000000    -1.009000000
H    -1.269000000     4.399000000    -1.816000000
H     0.070000000     4.618000000    -1.145000000
O    -2.417000000    -6.329000000     4.010000000
H    -2.177000000    -6.089000000     3.115000000
H    -1.691000000    -6.011000000     4.546000000
O    -0.622000000    -0.372000000     4.717000000
H    -1.287000000    -1.031000000     4.520000000
H     0.112000000    -0.871000000     5.075000000
O     1.458000000    -0.596000000    -3.813000000
H     2.276000000    -0.636000000    -3.317000000
H     0.926000000    -1.307000000    -3.455000000
O     3.460000000     4.099000000    -1.725000000
H     4.095000000     3.386000000    -1.792000000
H     3.243000000     4.141000000    -0.794000000
O    -0.954000000    -5.934000000     1.393000000
H    -0.369000000    -5.177000000     1.374000000
H    -0.718000000    -6.439000000     0.615000000
O     2.544000000     3.128000000    -5.486000000
H     1.839000000     2.531000000    -5.739000000
H     2.282000000     3.456000000    -4.626000000
O     0.554000000     1.175000000    -5.931000000
H    -0.374000000     0.964000000    -6.034000000
H     0.847000000     0.619000000    -5.209000000
O     2.397000000    -5.893000000     3.650000000
H     3.264000000    -5.832000000     4.051000000
H     2.095000000    -6.776000000     3.866000000
O    -4.346000000    -0.458000000     4.700000000
H    -3.791000000    -0.736000000     3.971000000
H    -4.319000000     0.498000000     4.671000000
O    -4.013000000     4.026000000     1.209000000
H    -3.264000000     3.432000000     1.162000000
H    -3.672000000     4.808000000     1.644000000
O     2.891000000    -3.830000000    -4.092000000
H     2.163000000    -3.241000000    -3.895000000
H     3.497000000    -3.716000000    -3.359000000
O    -4.954000000     0.950000000     1.245000000
H    -4.916000000     0.566000000     0.369000000
H    -5.222000000     1.857000000     1.098000000
O     2.117000000     4.583000000     1.669000000
H     1.446000000     4.647000000     2.348000000
H     1.987000000     5.364000000     1.130000000
O     0.962000000    -2.853000000    -2.483000000
H     1.688000000    -3.339000000    -2.092000000
H     0.183000000    -3.358000000    -2.248000000
O     3.833000000    -0.591000000    -2.600000000
H     4.254000000     0.253000000    -2.435000000
H     4.334000000    -1.215000000    -2.076000000
O     0.177000000     2.192000000    -3.233000000
H    -0.679000000     1.868000000    -2.952000000
H     0.668000000     1.404000000    -3.464000000
O    -3.124000000     4.882000000    -2.835000000
H    -3.576000000     5.664000000    -2.517000000
H    -3.789000000     4.194000000    -2.810000000
O    -4.582000000    -0.254000000    -1.400000000
H    -5.276000000    -0.225000000    -2.058000000
H    -3.998000000    -0.952000000    -1.699000000
O     1.361000000    -2.009000000     5.522000000
H     0.829000000    -2.690000000     5.112000000
H     2.260000000    -2.329000000     5.449000000
O    -1.188000000    -4.046000000    -1.356000000
H    -2.126000000    -3.888000000    -1.243000000
H    -0.814000000    -3.892000000    -0.489000000
O     0.205000000     2.086000000     3.188000000
H    -0.402000000     1.472000000     3.602000000
H     0.150000000     1.884000000     2.254000000
O     2.100000000    -8.209000000    -0.397000000
H     1.165000000    -8.411000000    -0.376000000
H     2.156000000    -7.299000000    -0.107000000
O     3.868000000     2.696000000     0.716000000
H     3.867000000     1.945000000     1.310000000
H     3.327000000     3.351000000     1.158000000
O    -1.576000000     6.177000000     1.428000000
H    -1.310000000     5.435000000     0.885000000
H    -0.854000000     6.293000000     2.045000000
O    -2.198000000    -1.030000000    -2.905000000
H    -1.521000000    -0.771000000    -2.280000000
H    -2.426000000    -0.219000000    -3.360000000
O    -2.420000000    -1.724000000     3.223000000
H    -1.905000000    -1.704000000     2.416000000
H    -2.899000000    -2.552000000     3.181000000
O     0.274000000     5.579000000     3.330000000
H    -0.561000000     5.209000000     3.616000000
H     0.470000000     6.258000000     3.975000000
O    -2.759000000     1.364000000    -3.949000000
H    -2.576000000     1.543000000    -4.871000000
H    -3.687000000     1.572000000    -3.845000000
O    -5.012000000     2.935000000    -3.154000000
H    -5.318000000     2.476000000    -2.372000000
H    -5.781000000     3.411000000    -3.468000000
O    -4.797000000    -1.921000000     1.469000000
H    -5.625000000    -1.827000000     0.998000000
H    -4.493000000    -1.022000000     1.598000000
O    -2.358000000     4.232000000    -5.346000000
H    -1.472000000     4.511000000    -5.573000000
H    -2.390000000     4.287000000    -4.391000000
O     6.410000000    -1.183000000    -1.051000000
H     6.464000000    -1.057000000    -1.999000000
H     7.098000000    -0.620000000    -0.695000000
O     5.532000000     1.696000000    -1.766000000
H     5.459000000     1.442000000    -0.846000000
H     6.466000000     1.627000000    -1.961000000
O     6.589000000    -2.093000000     2.303000000
H     5.908000000    -1.449000000     2.496000000
H     7.311000000    -1.577000000     1.942000000
O    -4.096000000    -3.208000000    -0.953000000
H    -4.465000000    -2.680000000    -0.245000000
H    -4.846000000    -3.681000000    -1.314000000
O    -4.240000000    -3.956000000     3.263000000
H    -4.442000000    -4.858000000     3.015000000
H    -4.687000000    -3.421000000     2.608000000
O     0.239000000    -4.194000000     4.202000000
H     0.881000000    -4.898000000     4.112000000
H     0.140000000    -3.846000000     3.316000000
O     5.771000000    -3.955000000     0.302000000
H     6.473000000    -4.383000000     0.794000000
H     5.552000000    -3.182000000     0.822000000
O    -3.714000000    -6.243000000     1.112000000
H    -3.759000000    -7.137000000     0.774000000
H    -2.856000000    -5.924000000     0.833000000
O     5.022000000     0.262000000     1.238000000
H     5.228000000    -0.343000000     0.525000000
H     4.415000000    -0.224000000     1.797000000
