158
-3035.58344
C     1.382000000     0.222000000    -0.172000000
H     2.419000000     0.540000000    -0.243000000
C     0.452000000     1.196000000    -0.420000000
H     0.743000000     2.219000000    -0.641000000
C    -0.828000000     0.835000000    -0.238000000
H    -1.615000000     1.523000000    -0.449000000
C    -1.234000000    -0.536000000     0.050000000
H    -2.262000000    -0.884000000     0.113000000
C    -0.256000000    -1.431000000     0.403000000
H    -0.437000000    -2.488000000     0.582000000
C     1.070000000    -1.064000000     0.319000000
C     2.192000000    -1.938000000     0.674000000
O     2.036000000    -2.949000000     1.359000000
O     3.245000000    -1.690000000     0.174000000
O     7.576000000    -2.405000000    -2.713000000
H     7.625000000    -3.196000000    -3.250000000
H     7.401000000    -2.727000000    -1.829000000
O     4.025000000    -0.263000000     3.918000000
H     4.538000000    -0.938000000     3.473000000
H     3.289000000    -0.738000000     4.305000000
O     1.767000000     3.157000000     3.528000000
H     0.951000000     2.693000000     3.341000000
H     2.438000000     2.475000000     3.520000000
O     4.181000000    -4.488000000     1.088000000
H     3.895000000    -5.287000000     1.530000000
H     3.372000000    -4.008000000     0.913000000
O     3.128000000    -0.791000000    -2.515000000
H     3.167000000    -1.125000000    -1.619000000
H     3.917000000    -1.136000000    -2.933000000
O    -0.827000000     6.126000000    -1.897000000
H    -0.442000000     5.607000000    -1.190000000
H    -1.287000000     5.486000000    -2.440000000
O     1.811000000    -6.545000000    -1.957000000
H     1.455000000    -6.528000000    -2.845000000
H     1.796000000    -5.630000000    -1.675000000
O    -1.038000000    -5.281000000     4.403000000
H    -0.756000000    -5.742000000     3.613000000
H    -0.555000000    -5.706000000     5.113000000
O     0.077000000    -5.457000000     1.476000000
H     0.579000000    -6.194000000     1.127000000
H     0.670000000    -4.709000000     1.404000000
O    -0.954000000     1.036000000     4.917000000
H    -1.369000000     0.337000000     4.411000000
H    -0.225000000     0.608000000     5.365000000
O     0.236000000     1.511000000    -4.650000000
H     0.965000000     1.652000000    -4.046000000
H     0.254000000     0.571000000    -4.831000000
O    -6.119000000     1.367000000     1.948000000
H    -5.242000000     1.282000000     1.574000000
H    -5.971000000     1.455000000     2.889000000
O    -2.416000000    -4.786000000     0.654000000
H    -1.553000000    -5.061000000     0.964000000
H    -2.236000000    -4.287000000    -0.143000000
O    -2.227000000    -0.585000000     2.607000000
H    -2.132000000    -0.456000000     1.663000000
H    -2.165000000    -1.532000000     2.727000000
O    -3.748000000     4.276000000    -2.886000000
H    -2.899000000     4.015000000    -3.244000000
H    -4.216000000     4.655000000    -3.630000000
O     0.399000000    -1.406000000    -3.701000000
H    -0.351000000    -1.451000000    -3.109000000
H     1.151000000    -1.261000000    -3.126000000
O    -7.501000000    -1.196000000     2.023000000
H    -6.861000000    -1.107000000     1.317000000
H    -8.199000000    -0.582000000     1.792000000
O    -3.128000000     3.863000000     1.006000000
H    -3.877000000     3.535000000     0.508000000
H    -3.170000000     4.814000000     0.901000000
O    -4.610000000     2.690000000    -0.741000000
H    -5.208000000     2.044000000    -1.117000000
H    -4.418000000     3.287000000    -1.464000000
O    -2.678000000     1.144000000    -2.996000000
H    -2.079000000     1.409000000    -3.694000000
H    -2.107000000     0.938000000    -2.256000000
O     2.505000000     1.991000000    -2.933000000
H     2.754000000     2.210000000    -3.831000000
H     3.078000000     1.261000000    -2.698000000
O    -1.761000000     3.561000000    -4.852000000
H    -2.324000000     3.357000000    -5.599000000
H    -1.084000000     2.884000000    -4.870000000
O     6.497000000    -2.512000000     0.138000000
H     5.560000000    -2.648000000     0.279000000
H     6.858000000    -2.409000000     1.019000000
O    -2.251000000    -2.331000000    -2.825000000
H    -3.098000000    -2.418000000    -2.388000000
H    -1.816000000    -3.170000000    -2.672000000
O    -1.002000000     2.867000000     2.413000000
H    -1.179000000     2.304000000     3.166000000
H    -1.772000000     2.769000000     1.854000000
O     2.240000000    -3.837000000    -1.569000000
H     2.765000000    -3.255000000    -1.019000000
H     2.522000000    -3.640000000    -2.463000000
O     0.056000000     4.764000000     0.786000000
H    -0.297000000     3.970000000     1.188000000
H     1.006000000     4.658000000     0.840000000
O    -2.927000000     7.584000000    -0.418000000
H    -2.507000000     7.015000000    -1.062000000
H    -2.633000000     7.246000000     0.428000000
O     3.944000000     1.833000000     2.474000000
H     4.613000000     1.817000000     1.790000000
H     3.968000000     0.955000000     2.854000000
O    -5.080000000     0.318000000    -4.209000000
H    -4.226000000     0.510000000    -3.822000000
H    -5.614000000     1.086000000    -4.005000000
O    -0.217000000    -2.737000000     5.995000000
H    -1.027000000    -2.250000000     5.844000000
H     0.292000000    -2.610000000     5.194000000
O     7.213000000     0.931000000     1.580000000
H     6.729000000     1.078000000     0.767000000
H     7.626000000     1.774000000     1.767000000
O    -1.870000000     6.327000000     1.847000000
H    -1.128000000     5.910000000     1.409000000
H    -1.920000000     5.895000000     2.699000000
O     5.399000000    -3.463000000     3.175000000
H     5.863000000    -2.715000000     2.800000000
H     5.139000000    -3.988000000     2.418000000
O    -7.221000000    -1.277000000    -0.935000000
H    -7.161000000    -0.480000000    -1.461000000
H    -8.031000000    -1.696000000    -1.225000000
O     3.116000000    -1.859000000     6.767000000
H     2.766000000    -2.644000000     7.187000000
H     3.185000000    -2.093000000     5.841000000
O     5.353000000     2.820000000     0.268000000
H     4.961000000     1.984000000     0.016000000
H     6.137000000     2.890000000    -0.276000000
O     3.830000000     4.275000000    -2.404000000
H     3.097000000     3.724000000    -2.129000000
H     4.536000000     3.657000000    -2.594000000
O     7.222000000    -1.488000000     2.566000000
H     7.549000000    -1.336000000     3.453000000
H     7.152000000    -0.613000000     2.184000000
O    -4.685000000    -2.826000000    -1.642000000
H    -5.143000000    -2.295000000    -0.991000000
H    -5.237000000    -3.601000000    -1.751000000
O    -2.568000000    -3.554000000     3.353000000
H    -2.475000000    -3.879000000     2.458000000
H    -1.949000000    -4.076000000     3.863000000
O    -5.203000000    -2.003000000     3.645000000
H    -4.832000000    -2.812000000     3.293000000
H    -5.860000000    -1.741000000     3.000000000
O     5.647000000    -5.180000000    -2.210000000
H     5.373000000    -6.022000000    -2.574000000
H     5.113000000    -5.074000000    -1.423000000
O     1.960000000    -2.640000000     4.161000000
H     2.292000000    -3.502000000     4.412000000
H     1.951000000    -2.657000000     3.204000000
O    -3.571000000    -1.450000000    -5.213000000
H    -4.206000000    -0.814000000    -4.883000000
H    -3.028000000    -1.663000000    -4.454000000
O     5.230000000     0.146000000    -0.332000000
H     4.398000000    -0.298000000    -0.167000000
H     5.877000000    -0.559000000    -0.357000000
O    -0.777000000    -4.539000000    -1.534000000
H    -0.825000000    -5.399000000    -1.951000000
H     0.153000000    -4.414000000    -1.349000000
O     3.156000000     4.281000000     1.248000000
H     3.898000000     3.745000000     0.968000000
H     2.876000000     3.889000000     2.076000000
