158
-3047.02002
C     1.257000000    -0.036000000    -0.804000000
H     2.116000000     0.057000000    -1.463000000
C     0.082000000     0.506000000    -1.217000000
H    -0.012000000     0.879000000    -2.233000000
C    -1.071000000     0.423000000    -0.417000000
H    -2.041000000     0.908000000    -0.676000000
C    -0.994000000    -0.213000000     0.805000000
H    -1.903000000    -0.451000000     1.352000000
C     0.239000000    -0.765000000     1.270000000
H     0.200000000    -1.301000000     2.215000000
C     1.389000000    -0.556000000     0.567000000
C     2.727000000    -1.015000000     1.075000000
O     2.843000000    -1.390000000     2.229000000
O     3.704000000    -1.039000000     0.314000000
O    -1.668000000     5.509000000    -2.917000000
H    -2.370000000     5.333000000    -3.544000000
H    -0.982000000     5.926000000    -3.438000000
O     3.064000000     2.867000000    -0.632000000
H     2.543000000     2.807000000     0.169000000
H     3.549000000     2.042000000    -0.664000000
O     3.929000000    -4.546000000     1.814000000
H     4.464000000    -4.108000000     2.476000000
H     3.385000000    -3.850000000     1.447000000
O     5.758000000    -2.006000000     1.784000000
H     5.375000000    -1.838000000     2.645000000
H     5.090000000    -1.713000000     1.164000000
O     3.656000000    -4.336000000     5.766000000
H     3.416000000    -5.259000000     5.685000000
H     3.007000000    -3.872000000     5.236000000
O     1.725000000    -2.668000000     4.277000000
H     1.256000000    -3.346000000     3.789000000
H     2.089000000    -2.096000000     3.602000000
O    -1.395000000     0.622000000     6.458000000
H    -1.956000000     0.418000000     5.709000000
H    -0.584000000     0.145000000     6.288000000
O     4.830000000     0.053000000    -3.761000000
H     5.345000000     0.554000000    -4.394000000
H     4.911000000     0.546000000    -2.944000000
O    -3.502000000     4.556000000    -4.746000000
H    -4.059000000     3.842000000    -5.054000000
H    -3.720000000     5.294000000    -5.315000000
O     6.346000000    -4.491000000    -0.183000000
H     6.039000000    -4.471000000     0.723000000
H     5.720000000    -3.946000000    -0.660000000
O    -5.027000000     2.341000000    -5.907000000
H    -4.927000000     2.483000000    -6.848000000
H    -4.367000000     1.682000000    -5.692000000
O     1.198000000    -2.736000000    -3.184000000
H     1.603000000    -1.869000000    -3.159000000
H     0.276000000    -2.575000000    -2.985000000
O    -3.044000000    -2.356000000     5.150000000
H    -2.983000000    -2.895000000     4.361000000
H    -2.934000000    -1.458000000     4.835000000
O    -1.340000000    -2.035000000    -1.782000000
H    -0.925000000    -1.289000000    -1.349000000
H    -2.279000000    -1.868000000    -1.697000000
O    -5.608000000    -2.300000000     1.052000000
H    -6.246000000    -3.007000000     0.959000000
H    -6.084000000    -1.512000000     0.788000000
O     2.199000000    -0.402000000    -4.209000000
H     3.086000000    -0.235000000    -3.891000000
H     2.324000000    -0.817000000    -5.063000000
O    -3.056000000     2.784000000     2.509000000
H    -3.540000000     3.548000000     2.195000000
H    -2.270000000     2.757000000     1.962000000
O    -1.741000000     4.115000000    -0.560000000
H    -2.589000000     3.877000000    -0.935000000
H    -1.327000000     4.659000000    -1.230000000
O     7.499000000     0.488000000    -0.231000000
H     7.890000000     0.932000000    -0.984000000
H     7.986000000    -0.332000000    -0.157000000
O    -6.783000000     0.161000000     0.542000000
H    -6.436000000     0.531000000     1.354000000
H    -6.664000000     0.854000000    -0.107000000
O     1.451000000     3.062000000    -4.437000000
H     0.924000000     2.857000000    -3.664000000
H     1.974000000     2.274000000    -4.585000000
O     4.617000000    -2.716000000    -1.623000000
H     4.311000000    -2.266000000    -0.836000000
H     4.844000000    -2.011000000    -2.229000000
O     3.904000000     4.329000000    -2.902000000
H     4.690000000     4.184000000    -2.376000000
H     3.232000000     3.793000000    -2.482000000
O     8.110000000    -3.283000000     1.608000000
H     8.450000000    -2.724000000     0.910000000
H     7.195000000    -3.018000000     1.703000000
O    -2.297000000     2.038000000    -3.519000000
H    -3.131000000     1.893000000    -3.071000000
H    -2.290000000     2.974000000    -3.717000000
O    -4.527000000     3.241000000    -1.829000000
H    -4.753000000     4.167000000    -1.739000000
H    -5.310000000     2.774000000    -1.537000000
O    -0.511000000    -0.375000000    -4.617000000
H    -0.738000000     0.388000000    -4.085000000
H     0.445000000    -0.373000000    -4.642000000
O    -3.104000000     0.274000000     3.943000000
H    -2.788000000     1.088000000     3.549000000
H    -4.056000000     0.366000000     3.951000000
O     2.691000000    -4.632000000    -1.694000000
H     3.431000000    -4.057000000    -1.498000000
H     2.073000000    -4.074000000    -2.166000000
O    -4.642000000    -0.013000000    -2.989000000
H    -4.363000000     0.116000000    -3.896000000
H    -5.595000000    -0.083000000    -3.040000000
O    -7.110000000     2.143000000    -1.281000000
H    -7.872000000     2.724000000    -1.281000000
H    -7.307000000     1.489000000    -1.951000000
O     2.849000000     0.761000000     3.880000000
H     2.567000000    -0.135000000     3.695000000
H     2.035000000     1.240000000     4.039000000
O    -0.588000000     2.823000000     1.305000000
H    -0.409000000     1.970000000     0.907000000
H    -0.823000000     3.386000000     0.567000000
O    -3.409000000     0.188000000    -5.532000000
H    -2.452000000     0.154000000    -5.519000000
H    -3.671000000    -0.625000000    -5.964000000
O     0.651000000    -1.087000000     6.505000000
H     0.168000000    -1.744000000     7.007000000
H     1.071000000    -1.585000000     5.804000000
O    -4.147000000    -1.641000000    -1.113000000
H    -4.645000000    -0.972000000    -1.582000000
H    -4.727000000    -1.921000000    -0.405000000
O    -0.183000000    -4.171000000     3.159000000
H    -1.118000000    -4.324000000     3.025000000
H     0.226000000    -4.456000000     2.342000000
O    -5.014000000     4.545000000     1.634000000
H    -5.688000000     5.187000000     1.413000000
H    -5.494000000     3.727000000     1.763000000
O     5.023000000     0.732000000    -1.034000000
H     4.435000000     0.161000000    -0.541000000
H     5.880000000     0.601000000    -0.628000000
O    -2.110000000    -2.526000000    -4.578000000
H    -1.387000000    -1.902000000    -4.646000000
H    -2.341000000    -2.525000000    -3.649000000
O     0.630000000    -4.248000000     0.484000000
H     0.361000000    -3.451000000     0.028000000
H     1.035000000    -4.788000000    -0.195000000
O    -6.383000000     1.954000000     2.536000000
H    -7.101000000     2.564000000     2.706000000
H    -5.914000000     1.899000000     3.369000000
O    -3.076000000    -3.683000000     2.814000000
H    -3.483000000    -4.204000000     3.506000000
H    -3.810000000    -3.259000000     2.369000000
O     4.772000000    -1.481000000     4.315000000
H     5.014000000    -0.564000000     4.446000000
H     3.978000000    -1.446000000     3.782000000
O    -5.077000000    -3.319000000    -3.187000000
H    -4.744000000    -4.060000000    -2.680000000
H    -4.689000000    -2.550000000    -2.770000000
O     5.316000000     1.618000000     3.582000000
H     5.442000000     1.658000000     4.530000000
H     4.403000000     1.354000000     3.473000000
O    -1.705000000    -4.930000000    -1.240000000
H    -0.921000000    -5.141000000    -1.749000000
H    -1.684000000    -3.977000000    -1.152000000
O     6.234000000    -4.051000000     4.361000000
H     5.638000000    -4.483000000     4.973000000
H     5.970000000    -3.131000000     4.379000000
