158
-3033.53384
C     1.015000000     0.787000000     0.595000000
H     1.747000000     1.504000000     0.959000000
C     0.034000000     1.178000000    -0.294000000
H    -0.085000000     2.215000000    -0.599000000
C    -0.949000000     0.363000000    -0.712000000
H    -1.716000000     0.731000000    -1.318000000
C    -0.782000000    -0.973000000    -0.525000000
H    -1.523000000    -1.685000000    -0.880000000
C     0.292000000    -1.465000000     0.237000000
H     0.374000000    -2.499000000     0.561000000
C     1.170000000    -0.590000000     0.865000000
C     2.309000000    -1.007000000     1.801000000
O     2.429000000    -2.192000000     1.938000000
O     2.987000000    -0.187000000     2.368000000
O     4.986000000    -3.391000000    -0.688000000
H     5.105000000    -2.492000000    -0.997000000
H     4.884000000    -3.306000000     0.260000000
O     4.225000000    -0.827000000     5.395000000
H     3.514000000    -0.908000000     4.760000000
H     4.843000000    -0.220000000     4.988000000
O     4.309000000    -4.033000000     3.959000000
H     3.824000000    -4.855000000     3.885000000
H     3.706000000    -3.439000000     4.405000000
O     1.564000000    -3.581000000     6.979000000
H     1.477000000    -3.398000000     6.043000000
H     2.411000000    -4.020000000     7.059000000
O     4.225000000     1.923000000    -1.790000000
H     3.452000000     2.469000000    -1.936000000
H     4.211000000     1.733000000    -0.852000000
O    -6.811000000     1.851000000     2.543000000
H    -6.371000000     1.218000000     1.976000000
H    -7.061000000     1.346000000     3.317000000
O    -3.402000000    -0.629000000    -3.246000000
H    -3.355000000    -1.564000000    -3.447000000
H    -2.533000000    -0.413000000    -2.909000000
O    -1.214000000    -5.552000000     1.990000000
H    -0.916000000    -6.137000000     2.686000000
H    -0.520000000    -4.898000000     1.913000000
O     5.281000000    -2.333000000     1.857000000
H     5.122000000    -2.810000000     2.672000000
H     4.598000000    -1.662000000     1.836000000
O    -3.968000000     2.297000000    -4.683000000
H    -3.410000000     1.676000000    -4.214000000
H    -4.340000000     2.850000000    -3.996000000
O     2.786000000    -4.466000000    -1.670000000
H     2.997000000    -4.845000000    -2.524000000
H     3.594000000    -4.031000000    -1.395000000
O    -0.855000000    -1.884000000     3.293000000
H    -1.487000000    -2.599000000     3.370000000
H    -1.280000000    -1.141000000     3.721000000
O    -1.684000000    -4.646000000    -2.409000000
H    -1.412000000    -5.440000000    -1.948000000
H    -2.003000000    -4.066000000    -1.717000000
O    -5.198000000    -3.929000000     1.478000000
H    -4.535000000    -3.877000000     2.167000000
H    -4.694000000    -3.972000000     0.665000000
O     2.950000000    -2.495000000    -3.571000000
H     2.689000000    -3.015000000    -2.811000000
H     2.828000000    -3.083000000    -4.317000000
O    -2.071000000     4.557000000    -3.410000000
H    -1.791000000     5.254000000    -2.817000000
H    -1.327000000     3.955000000    -3.440000000
O     1.517000000     4.293000000     2.493000000
H     0.598000000     4.369000000     2.749000000
H     1.961000000     3.978000000     3.280000000
O     1.112000000     4.649000000    -3.984000000
H     1.540000000     5.108000000    -4.707000000
H     1.250000000     3.722000000    -4.174000000
O     2.501000000    -5.943000000     3.763000000
H     2.010000000    -6.697000000     4.088000000
H     1.944000000    -5.570000000     3.079000000
O    -3.171000000    -1.178000000     1.429000000
H    -3.309000000    -1.875000000     2.070000000
H    -2.296000000    -0.843000000     1.624000000
O     3.461000000     4.188000000     0.454000000
H     2.808000000     4.312000000     1.143000000
H     3.073000000     4.598000000    -0.319000000
O     5.695000000    -0.577000000    -1.060000000
H     6.447000000    -0.272000000    -0.552000000
H     5.351000000     0.214000000    -1.475000000
O     7.381000000     1.353000000     0.388000000
H     7.744000000     2.090000000    -0.103000000
H     6.434000000     1.490000000     0.361000000
O    -0.325000000     6.468000000    -2.237000000
H     0.135000000     5.735000000    -2.646000000
H    -0.481000000     7.083000000    -2.954000000
O     0.470000000    -1.694000000    -2.926000000
H     1.399000000    -1.604000000    -3.139000000
H     0.386000000    -1.305000000    -2.055000000
O    -1.889000000     3.078000000     2.097000000
H    -2.230000000     2.498000000     2.778000000
H    -2.479000000     2.949000000     1.355000000
O     2.667000000    -6.888000000    -0.469000000
H     2.640000000    -6.095000000    -1.004000000
H     2.226000000    -6.644000000     0.344000000
O    -0.206000000    -4.737000000    -4.720000000
H    -0.833000000    -4.354000000    -5.334000000
H    -0.557000000    -4.524000000    -3.855000000
O    -0.844000000    -1.537000000    -5.427000000
H    -0.797000000    -0.589000000    -5.554000000
H    -0.539000000    -1.674000000    -4.530000000
O    -5.583000000    -2.717000000    -1.963000000
H    -5.435000000    -1.774000000    -1.902000000
H    -5.039000000    -2.998000000    -2.699000000
O    -3.791000000     2.192000000     0.215000000
H    -3.963000000     2.342000000    -0.714000000
H    -4.289000000     1.402000000     0.427000000
O     3.183000000     1.998000000     3.707000000
H     3.428000000     1.241000000     3.174000000
H     2.434000000     1.696000000     4.221000000
O    -3.250000000    -3.368000000    -4.155000000
H    -3.031000000    -3.797000000    -4.982000000
H    -2.659000000    -3.765000000    -3.516000000
O     0.887000000     1.238000000     4.584000000
H     0.192000000     1.886000000     4.477000000
H     0.723000000     0.593000000     3.896000000
O    -0.639000000     2.042000000    -3.485000000
H     0.284000000     1.942000000    -3.251000000
H    -0.686000000     1.762000000    -4.399000000
O     2.699000000     5.651000000    -1.763000000
H     2.222000000     5.532000000    -2.584000000
H     3.616000000     5.499000000    -1.995000000
O    -5.572000000     0.093000000     0.888000000
H    -6.168000000    -0.620000000     1.116000000
H    -4.758000000    -0.345000000     0.638000000
O    -3.222000000    -3.099000000    -0.421000000
H    -4.032000000    -2.942000000    -0.906000000
H    -3.207000000    -2.414000000     0.248000000
O     1.660000000    -2.997000000     4.317000000
H     0.778000000    -2.700000000     4.095000000
H     2.174000000    -2.834000000     3.526000000
O    -1.234000000     5.471000000     3.179000000
H    -1.049000000     5.119000000     4.050000000
H    -1.622000000     4.737000000     2.702000000
O    -6.303000000     4.161000000     0.676000000
H    -5.370000000     3.961000000     0.600000000
H    -6.710000000     3.324000000     0.901000000
O    -4.192000000     3.483000000    -2.268000000
H    -4.317000000     4.299000000    -1.783000000
H    -3.303000000     3.545000000    -2.617000000
O     4.252000000     1.602000000     0.808000000
H     3.811000000     1.087000000     1.484000000
H     4.154000000     2.510000000     1.097000000
O    -1.320000000     1.097000000    -6.235000000
H    -0.858000000     1.561000000    -6.933000000
H    -2.223000000     1.407000000    -6.298000000
O     1.665000000    -4.682000000     1.380000000
H     1.788000000    -4.415000000     0.469000000
H     1.994000000    -3.944000000     1.893000000
O    -2.914000000    -3.642000000     3.054000000
H    -3.350000000    -4.102000000     3.771000000
H    -2.291000000    -4.278000000     2.704000000
O     4.321000000     4.482000000     4.000000000
H     4.453000000     4.400000000     4.944000000
H     3.948000000     3.641000000     3.736000000
O    -1.286000000    -6.756000000    -0.694000000
H    -0.994000000    -6.409000000     0.149000000
H    -2.240000000    -6.784000000    -0.623000000
