158
-3033.46584
C     1.214000000     0.511000000     0.736000000
H     2.068000000     1.021000000     1.176000000
C     0.504000000     1.268000000    -0.215000000
H     0.707000000     2.310000000    -0.447000000
C    -0.625000000     0.647000000    -0.781000000
H    -1.184000000     1.270000000    -1.518000000
C    -0.985000000    -0.671000000    -0.498000000
H    -1.829000000    -1.113000000    -1.021000000
C    -0.221000000    -1.426000000     0.387000000
H    -0.482000000    -2.461000000     0.594000000
C     0.878000000    -0.796000000     1.055000000
C     1.676000000    -1.589000000     2.025000000
O     1.223000000    -2.606000000     2.476000000
O     2.645000000    -1.035000000     2.552000000
O    -1.569000000     4.726000000     0.138000000
H    -0.982000000     5.395000000    -0.215000000
H    -1.173000000     4.476000000     0.972000000
O     2.501000000     1.996000000    -3.467000000
H     1.829000000     1.315000000    -3.448000000
H     2.781000000     2.031000000    -4.382000000
O    -3.257000000     3.951000000    -2.059000000
H    -2.758000000     4.151000000    -1.267000000
H    -4.148000000     3.791000000    -1.747000000
O     4.940000000    -3.743000000     0.658000000
H     5.091000000    -2.990000000     0.086000000
H     4.942000000    -3.376000000     1.542000000
O     2.810000000    -1.206000000     6.533000000
H     2.412000000    -1.623000000     5.769000000
H     3.554000000    -0.719000000     6.180000000
O     4.714000000     0.486000000     1.408000000
H     4.606000000     0.359000000     0.465000000
H     4.088000000    -0.121000000     1.804000000
O    -5.030000000     0.807000000     1.694000000
H    -4.496000000     0.341000000     1.051000000
H    -4.573000000     0.676000000     2.525000000
O    -5.823000000    -0.804000000    -5.316000000
H    -5.265000000    -0.382000000    -5.969000000
H    -5.274000000    -0.865000000    -4.535000000
O    -3.769000000    -1.150000000    -3.565000000
H    -4.029000000    -2.047000000    -3.353000000
H    -2.886000000    -1.235000000    -3.925000000
O     0.103000000    -7.068000000    -0.662000000
H     0.325000000    -6.585000000     0.134000000
H     0.948000000    -7.307000000    -1.040000000
O     4.607000000    -2.595000000     3.206000000
H     4.894000000    -2.278000000     4.063000000
H     3.763000000    -2.168000000     3.062000000
O     3.391000000    -5.770000000    -0.229000000
H     3.895000000    -5.940000000    -1.025000000
H     3.832000000    -5.024000000     0.178000000
O    -0.881000000    -3.080000000     3.907000000
H     0.034000000    -3.055000000     3.626000000
H    -1.239000000    -3.862000000     3.489000000
O    -2.511000000    -5.721000000    -1.355000000
H    -1.614000000    -6.013000000    -1.195000000
H    -2.824000000    -5.428000000    -0.499000000
O    -3.526000000     5.203000000    -4.518000000
H    -3.509000000     4.689000000    -3.710000000
H    -2.915000000     4.754000000    -5.101000000
O    -0.277000000     3.806000000     2.497000000
H     0.405000000     4.404000000     2.803000000
H    -0.040000000     2.959000000     2.873000000
O    -0.575000000     5.105000000    -3.405000000
H    -0.260000000     5.929000000    -3.777000000
H    -1.359000000     5.350000000    -2.912000000
O     3.374000000     4.979000000     4.271000000
H     4.243000000     5.379000000     4.311000000
H     3.545000000     4.038000000     4.241000000
O     3.038000000    -6.796000000     4.106000000
H     3.327000000    -7.319000000     4.854000000
H     2.089000000    -6.732000000     4.211000000
O    -3.617000000     3.722000000     1.988000000
H    -4.139000000     3.003000000     1.632000000
H    -3.102000000     4.035000000     1.245000000
O     7.490000000    -2.372000000     2.206000000
H     6.622000000    -2.559000000     2.563000000
H     7.687000000    -3.125000000     1.649000000
O     4.330000000     1.078000000    -1.358000000
H     3.567000000     1.323000000    -1.882000000
H     4.921000000     1.828000000    -1.429000000
O     6.561000000     1.880000000     3.036000000
H     5.906000000     1.394000000     2.534000000
H     6.388000000     2.798000000     2.827000000
O     0.943000000     6.728000000    -0.830000000
H     1.338000000     7.421000000    -1.360000000
H     1.333000000     5.920000000    -1.163000000
O     1.228000000    -0.570000000    -2.727000000
H     1.643000000    -1.413000000    -2.907000000
H     0.752000000    -0.707000000    -1.908000000
O    -1.641000000     1.091000000     1.891000000
H    -1.410000000     0.500000000     2.608000000
H    -1.184000000     0.734000000     1.130000000
O     0.393000000    -5.291000000    -3.543000000
H    -0.274000000    -4.606000000    -3.584000000
H     0.846000000    -5.135000000    -2.714000000
O    -1.047000000    -0.795000000    -4.517000000
H    -0.635000000    -0.755000000    -5.381000000
H    -0.314000000    -0.770000000    -3.902000000
O    -4.471000000     0.590000000    -1.182000000
H    -3.791000000     0.604000000    -1.856000000
H    -4.341000000    -0.242000000    -0.727000000
O     1.715000000     0.527000000     4.365000000
H     1.961000000    -0.051000000     3.643000000
H     0.770000000     0.644000000     4.267000000
O     3.025000000     4.741000000     0.323000000
H     3.862000000     5.084000000     0.012000000
H     2.568000000     4.468000000    -0.473000000
O    -4.423000000    -4.106000000    -3.229000000
H    -4.526000000    -4.371000000    -4.143000000
H    -3.899000000    -4.803000000    -2.835000000
O    -1.183000000    -0.431000000     4.026000000
H    -2.013000000    -0.553000000     4.488000000
H    -0.833000000    -1.316000000     3.923000000
O    -2.474000000     1.829000000    -4.410000000
H    -2.766000000     2.374000000    -3.679000000
H    -2.331000000     0.966000000    -4.022000000
O     1.595000000     4.303000000    -1.944000000
H     0.829000000     4.463000000    -2.494000000
H     2.017000000     3.538000000    -2.337000000
O    -4.411000000    -1.888000000     0.156000000
H    -5.243000000    -2.246000000    -0.153000000
H    -4.420000000    -2.041000000     1.101000000
O    -3.517000000    -5.441000000     1.131000000
H    -2.864000000    -5.780000000     1.743000000
H    -4.111000000    -4.925000000     1.676000000
O     2.295000000    -3.292000000     4.811000000
H     2.207000000    -3.004000000     3.902000000
H     1.902000000    -4.165000000     4.825000000
O    -5.686000000     3.111000000    -0.755000000
H    -5.361000000     2.230000000    -0.943000000
H    -6.376000000     2.978000000    -0.105000000
O    -7.031000000     1.729000000    -3.048000000
H    -6.412000000     2.104000000    -2.421000000
H    -7.468000000     2.487000000    -3.436000000
O     3.820000000     2.109000000     4.725000000
H     3.027000000     1.574000000     4.686000000
H     3.986000000     2.358000000     3.815000000
O     0.452000000     0.694000000    -6.452000000
H     1.275000000     1.080000000    -6.154000000
H    -0.010000000     1.415000000    -6.881000000
O     0.995000000    -5.212000000     1.277000000
H     1.793000000    -5.300000000     0.755000000
H     1.002000000    -4.303000000     1.575000000
O    -5.497000000     2.463000000    -5.271000000
H    -5.986000000     2.048000000    -4.561000000
H    -4.797000000     1.843000000    -5.475000000
O    -1.031000000    -5.595000000     3.157000000
H    -0.440000000    -5.978000000     2.509000000
H    -0.547000000    -5.644000000     3.982000000
O     5.439000000    -0.662000000     5.567000000
H     5.459000000    -0.004000000     6.262000000
H     5.649000000    -0.176000000     4.770000000
O     3.662000000     2.883000000     2.179000000
H     4.102000000     2.206000000     1.665000000
H     3.527000000     3.602000000     1.561000000
O    -3.826000000     0.728000000    -6.795000000
H    -3.483000000     1.012000000    -7.642000000
H    -3.159000000     0.996000000    -6.164000000
