158
-3035.83008
C     0.743000000     0.718000000     1.063000000
H     1.439000000     1.226000000     1.725000000
C     0.624000000     1.144000000    -0.283000000
H     1.261000000     1.892000000    -0.749000000
C    -0.221000000     0.411000000    -1.159000000
H    -0.283000000     0.647000000    -2.201000000
C    -0.841000000    -0.754000000    -0.736000000
H    -1.322000000    -1.395000000    -1.470000000
C    -0.700000000    -1.174000000     0.607000000
H    -1.187000000    -2.097000000     0.910000000
C     0.061000000    -0.392000000     1.540000000
C     0.208000000    -0.812000000     2.946000000
O    -0.318000000    -1.859000000     3.308000000
O     0.882000000    -0.166000000     3.696000000
O     0.625000000     5.257000000     3.281000000
H    -0.300000000     5.368000000     3.499000000
H     0.866000000     4.420000000     3.678000000
O     1.752000000    -3.044000000    -5.700000000
H     1.477000000    -2.275000000    -5.200000000
H     2.098000000    -3.647000000    -5.041000000
O     4.330000000     3.318000000    -1.234000000
H     4.933000000     2.630000000    -0.951000000
H     4.866000000     4.110000000    -1.262000000
O    -1.154000000     1.829000000    -4.618000000
H    -1.381000000     2.470000000    -3.944000000
H    -0.239000000     1.609000000    -4.440000000
O    -3.946000000     3.028000000    -5.861000000
H    -3.236000000     3.469000000    -6.328000000
H    -4.614000000     2.878000000    -6.530000000
O     2.273000000    -2.650000000     4.346000000
H     1.705000000    -2.006000000     3.922000000
H     3.126000000    -2.220000000     4.397000000
O     0.874000000    -0.976000000    -4.319000000
H    -0.030000000    -1.047000000    -4.624000000
H     1.151000000    -0.102000000    -4.593000000
O    -3.115000000    -1.760000000     3.141000000
H    -3.283000000    -1.339000000     3.985000000
H    -2.165000000    -1.711000000     3.035000000
O    -0.613000000     4.705000000    -0.255000000
H     0.144000000     4.710000000    -0.840000000
H    -0.288000000     5.084000000     0.561000000
O     2.216000000    -4.295000000    -1.816000000
H     1.341000000    -4.573000000    -1.545000000
H     2.212000000    -3.345000000    -1.699000000
O    -4.396000000    -3.658000000     1.160000000
H    -3.767000000    -3.230000000     1.741000000
H    -4.920000000    -4.212000000     1.740000000
O    -4.459000000    -4.267000000     5.605000000
H    -4.396000000    -4.319000000     6.559000000
H    -3.750000000    -3.677000000     5.351000000
O    -3.896000000     0.612000000    -4.293000000
H    -4.281000000     1.442000000    -4.575000000
H    -2.951000000     0.759000000    -4.341000000
O    -1.756000000     3.882000000    -2.698000000
H    -1.522000000     4.606000000    -3.280000000
H    -1.475000000     4.171000000    -1.831000000
O    -4.707000000     4.151000000    -3.279000000
H    -4.368000000     3.847000000    -4.120000000
H    -3.989000000     4.657000000    -2.899000000
O    -2.977000000    -6.866000000     1.950000000
H    -2.854000000    -5.961000000     1.663000000
H    -3.902000000    -7.047000000     1.780000000
O     1.666000000     0.999000000     8.488000000
H     1.217000000     0.975000000     7.643000000
H     2.515000000     0.589000000     8.319000000
O     5.595000000    -1.382000000     1.526000000
H     5.916000000    -0.507000000     1.745000000
H     5.193000000    -1.280000000     0.663000000
O     4.329000000     1.941000000    -3.816000000
H     5.202000000     2.117000000    -4.169000000
H     4.435000000     2.014000000    -2.868000000
O    -2.278000000    -1.671000000     7.722000000
H    -2.221000000    -0.898000000     7.160000000
H    -2.261000000    -2.411000000     7.115000000
O     6.234000000     1.192000000     2.067000000
H     5.422000000     1.698000000     2.101000000
H     6.874000000     1.792000000     1.683000000
O     0.282000000     5.240000000    -4.742000000
H     0.572000000     5.960000000    -4.183000000
H     1.080000000     4.745000000    -4.928000000
O    -0.568000000    -4.141000000    -3.876000000
H    -1.057000000    -3.389000000    -4.210000000
H     0.251000000    -4.134000000    -4.373000000
O    -1.036000000    -6.762000000    -3.050000000
H    -1.599000000    -6.692000000    -3.821000000
H    -0.765000000    -5.862000000    -2.869000000
O    -2.416000000     2.264000000     0.957000000
H    -1.767000000     1.561000000     0.945000000
H    -1.981000000     2.998000000     0.522000000
O    -1.506000000     4.425000000    -6.560000000
H    -0.882000000     4.813000000    -5.946000000
H    -1.058000000     3.651000000    -6.901000000
O     1.790000000     4.465000000    -1.657000000
H     2.312000000     3.794000000    -1.217000000
H     2.162000000     4.520000000    -2.537000000
O    -4.896000000     0.786000000    -0.011000000
H    -3.957000000     0.861000000     0.161000000
H    -5.231000000     0.258000000     0.714000000
O     1.665000000     1.775000000    -4.502000000
H     1.832000000     2.128000000    -5.376000000
H     2.523000000     1.768000000    -4.079000000
O     2.894000000     4.615000000    -4.294000000
H     3.437000000     4.991000000    -4.987000000
H     3.323000000     3.788000000    -4.076000000
O     0.711000000     2.434000000     4.247000000
H     0.067000000     2.440000000     4.955000000
H     0.969000000     1.516000000     4.164000000
O     4.869000000    -1.036000000    -1.398000000
H     3.940000000    -1.180000000    -1.579000000
H     5.308000000    -1.796000000    -1.780000000
O    -1.551000000    -1.473000000    -5.012000000
H    -1.653000000    -1.911000000    -5.857000000
H    -2.404000000    -1.069000000    -4.847000000
O     3.391000000     0.147000000     4.335000000
H     3.675000000     0.253000000     3.427000000
H     2.444000000     0.024000000     4.277000000
O     3.672000000     2.517000000     1.939000000
H     2.966000000     3.022000000     2.344000000
H     4.034000000     3.104000000     1.275000000
O     0.083000000    -4.349000000     1.894000000
H     0.713000000    -4.733000000     2.503000000
H    -0.029000000    -3.449000000     2.200000000
O    -1.692000000    -3.382000000     5.512000000
H    -1.265000000    -4.219000000     5.693000000
H    -1.197000000    -3.013000000     4.780000000
O    -2.823000000    -4.785000000    -0.796000000
H    -3.424000000    -5.007000000    -1.507000000
H    -3.379000000    -4.377000000    -0.131000000
O     5.162000000     1.807000000     5.701000000
H     4.436000000     1.380000000     5.247000000
H     4.991000000     2.743000000     5.599000000
O    -5.893000000    -0.863000000     1.967000000
H    -5.098000000    -1.196000000     2.385000000
H    -6.213000000    -1.596000000     1.442000000
O     2.271000000    -1.429000000    -2.060000000
H     1.859000000    -1.201000000    -2.893000000
H     1.786000000    -0.923000000    -1.407000000
O    -5.968000000    -0.560000000    -2.717000000
H    -5.410000000    -0.353000000    -1.967000000
H    -5.590000000    -0.061000000    -3.441000000
O     0.316000000    -0.367000000     6.467000000
H     0.061000000    -1.255000000     6.716000000
H     0.296000000    -0.372000000     5.510000000
O    -3.092000000     0.132000000     5.455000000
H    -2.607000000     0.943000000     5.300000000
H    -3.719000000     0.355000000     6.143000000
O    -0.149000000    -5.115000000    -0.874000000
H    -1.099000000    -5.063000000    -0.980000000
H     0.018000000    -4.723000000    -0.017000000
O    -1.388000000     1.522000000    -7.336000000
H    -1.410000000     1.675000000    -6.392000000
H    -2.220000000     1.090000000    -7.528000000
O     3.554000000    -5.181000000     4.438000000
H     3.115000000    -4.331000000     4.402000000
H     3.541000000    -5.495000000     3.534000000
O     1.751000000    -2.952000000     7.025000000
H     2.531000000    -3.495000000     7.143000000
H     1.907000000    -2.483000000     6.206000000
