158
-3027.33829
C     1.102000000     0.565000000     0.745000000
H     1.870000000     1.174000000     1.215000000
C     0.573000000     1.045000000    -0.448000000
H     1.044000000     1.934000000    -0.860000000
C    -0.396000000     0.373000000    -1.121000000
H    -0.840000000     0.800000000    -2.052000000
C    -0.936000000    -0.799000000    -0.482000000
H    -1.792000000    -1.306000000    -0.920000000
C    -0.547000000    -1.198000000     0.778000000
H    -0.981000000    -2.052000000     1.293000000
C     0.507000000    -0.525000000     1.420000000
C     1.107000000    -1.014000000     2.696000000
O     0.711000000    -2.083000000     3.191000000
O     2.015000000    -0.466000000     3.201000000
O    -1.043000000     0.484000000    -5.128000000
H    -0.624000000     1.275000000    -4.789000000
H    -0.325000000    -0.025000000    -5.503000000
O    -3.785000000    -1.584000000     4.710000000
H    -3.227000000    -1.336000000     5.447000000
H    -4.005000000    -0.755000000     4.287000000
O     0.180000000    -4.417000000     4.009000000
H     0.411000000    -3.517000000     3.776000000
H     1.021000000    -4.869000000     4.081000000
O    -2.679000000    -2.716000000    -3.827000000
H    -1.791000000    -3.005000000    -3.619000000
H    -2.782000000    -2.909000000    -4.758000000
O    -2.393000000    -3.175000000     3.138000000
H    -2.827000000    -2.613000000     3.780000000
H    -1.467000000    -3.143000000     3.380000000
O     1.623000000     3.327000000     6.336000000
H     1.389000000     2.700000000     5.651000000
H     2.207000000     2.839000000     6.917000000
O    -0.590000000     4.359000000     1.889000000
H    -0.751000000     4.098000000     2.796000000
H    -1.162000000     5.114000000     1.752000000
O    -3.662000000     2.982000000    -4.296000000
H    -4.069000000     3.717000000    -4.753000000
H    -2.722000000     3.157000000    -4.351000000
O     2.450000000     3.831000000     3.199000000
H     2.217000000     4.079000000     2.304000000
H     1.970000000     4.449000000     3.751000000
O     3.900000000    -0.510000000    -0.991000000
H     4.807000000    -0.384000000    -1.270000000
H     3.524000000     0.371000000    -0.993000000
O     5.444000000    -3.512000000     5.332000000
H     5.865000000    -2.725000000     5.677000000
H     4.628000000    -3.196000000     4.944000000
O    -5.461000000    -1.252000000     0.669000000
H    -5.300000000    -1.499000000    -0.242000000
H    -5.081000000    -0.377000000     0.750000000
O    -5.719000000    -3.881000000     1.315000000
H    -5.462000000    -2.989000000     1.083000000
H    -6.018000000    -3.815000000     2.222000000
O    -0.082000000    -3.711000000    -2.689000000
H    -0.711000000    -3.921000000    -2.000000000
H     0.609000000    -3.222000000    -2.243000000
O    -2.017000000     4.035000000    -1.966000000
H    -2.131000000     3.526000000    -1.164000000
H    -2.331000000     4.910000000    -1.741000000
O     6.318000000     1.516000000     0.718000000
H     5.544000000     1.943000000     0.352000000
H     6.923000000     1.444000000    -0.021000000
O    -3.376000000     0.304000000    -3.913000000
H    -2.455000000     0.338000000    -4.172000000
H    -3.633000000     1.222000000    -3.825000000
O     4.316000000     3.204000000    -0.320000000
H     3.664000000     3.263000000    -1.018000000
H     4.322000000     4.075000000     0.076000000
O     5.700000000    -0.454000000     5.698000000
H     5.664000000    -0.606000000     4.753000000
H     6.151000000     0.386000000     5.788000000
O     1.435000000     2.504000000    -4.349000000
H     1.695000000     1.607000000    -4.141000000
H     1.637000000     2.603000000    -5.279000000
O    -1.587000000    -4.608000000    -0.496000000
H    -2.153000000    -3.872000000    -0.264000000
H    -1.842000000    -5.306000000     0.107000000
O    -0.097000000     4.667000000    -4.082000000
H     0.536000000     3.962000000    -4.220000000
H    -0.597000000     4.393000000    -3.313000000
O    -1.995000000     2.355000000     0.410000000
H    -1.475000000     2.850000000     1.043000000
H    -1.569000000     1.499000000     0.368000000
O    -5.177000000     2.193000000    -1.989000000
H    -4.864000000     2.564000000    -2.814000000
H    -6.111000000     2.404000000    -1.971000000
O     1.804000000     4.518000000     0.719000000
H     0.945000000     4.306000000     1.082000000
H     1.730000000     4.308000000    -0.212000000
O    -5.492000000    -0.335000000    -5.818000000
H    -4.769000000     0.050000000    -5.323000000
H    -6.110000000    -0.631000000    -5.149000000
O    -2.260000000     1.808000000     3.928000000
H    -2.270000000     2.222000000     4.791000000
H    -3.166000000     1.537000000     3.781000000
O     0.185000000    -3.388000000    -5.966000000
H     0.218000000    -2.970000000    -5.105000000
H    -0.741000000    -3.367000000    -6.207000000
O     0.615000000    -0.559000000    -7.007000000
H     0.350000000    -1.433000000    -7.293000000
H     1.516000000    -0.468000000    -7.316000000
O     0.525000000     1.744000000     4.099000000
H    -0.402000000     1.691000000     3.868000000
H     0.939000000     1.047000000     3.591000000
O     1.843000000    -4.214000000     1.260000000
H     1.665000000    -3.976000000     0.350000000
H     1.265000000    -3.649000000     1.773000000
O    -3.482000000    -5.440000000     1.880000000
H    -2.950000000    -4.777000000     2.321000000
H    -4.218000000    -4.950000000     1.513000000
O     3.138000000    -1.876000000     5.348000000
H     3.835000000    -1.299000000     5.660000000
H     2.756000000    -1.411000000     4.604000000
O     3.961000000     1.318000000     3.761000000
H     3.230000000     0.701000000     3.728000000
H     3.613000000     2.122000000     3.375000000
O    -2.192000000    -0.808000000     6.808000000
H    -1.361000000    -1.278000000     6.737000000
H    -1.954000000     0.043000000     7.178000000
O     5.460000000     4.677000000     2.616000000
H     4.870000000     3.925000000     2.657000000
H     5.114000000     5.214000000     1.902000000
O    -4.614000000    -1.552000000    -2.346000000
H    -4.490000000    -0.619000000    -2.519000000
H    -3.982000000    -1.988000000    -2.917000000
O     2.555000000     4.049000000    -2.019000000
H     2.680000000     4.989000000    -2.148000000
H     2.074000000     3.763000000    -2.796000000
O     1.943000000    -2.302000000    -1.073000000
H     2.822000000    -1.952000000    -1.216000000
H     1.368000000    -1.539000000    -1.139000000
O    -4.623000000     1.452000000     0.669000000
H    -3.727000000     1.784000000     0.717000000
H    -4.927000000     1.707000000    -0.202000000
O     0.985000000     0.340000000     6.858000000
H     1.149000000     0.024000000     5.970000000
H     0.276000000     0.975000000     6.759000000
O     1.764000000    -4.101000000     6.940000000
H     2.161000000    -3.503000000     6.306000000
H     1.699000000    -3.588000000     7.745000000
O     4.004000000     6.042000000     0.945000000
H     3.212000000     5.528000000     0.785000000
H     3.681000000     6.898000000     1.226000000
O     2.248000000    -0.021000000    -4.285000000
H     2.146000000    -0.245000000    -5.210000000
H     2.773000000    -0.734000000    -3.922000000
O     5.788000000    -0.298000000     2.858000000
H     4.958000000     0.140000000     3.046000000
H     6.240000000     0.294000000     2.256000000
O     4.527000000    -4.655000000     2.463000000
H     4.747000000    -3.816000000     2.058000000
H     3.598000000    -4.779000000     2.269000000
O     4.819000000    -2.205000000     1.077000000
H     4.493000000    -1.748000000     0.302000000
H     5.107000000    -1.505000000     1.664000000
O    -1.090000000    -3.477000000     6.484000000
H    -0.643000000    -3.702000000     5.668000000
H    -0.396000000    -3.474000000     7.144000000
