158
-3042.52836
C     1.003000000     0.115000000     1.125000000
H     1.799000000     0.283000000     1.845000000
C     1.008000000     0.844000000    -0.110000000
H     1.850000000     1.525000000    -0.205000000
C     0.001000000     0.663000000    -1.078000000
H    -0.029000000     1.229000000    -1.988000000
C    -1.020000000    -0.256000000    -0.878000000
H    -1.873000000    -0.408000000    -1.534000000
C    -0.918000000    -1.032000000     0.267000000
H    -1.628000000    -1.811000000     0.535000000
C     0.038000000    -0.888000000     1.332000000
C    -0.086000000    -1.604000000     2.660000000
O    -0.950000000    -2.407000000     2.862000000
O     0.756000000    -1.428000000     3.514000000
O     5.471000000    -3.595000000     2.604000000
H     4.730000000    -3.083000000     2.928000000
H     5.842000000    -4.002000000     3.388000000
O     1.404000000     1.781000000    -5.632000000
H     1.341000000     1.589000000    -6.568000000
H     1.694000000     0.957000000    -5.238000000
O    -3.402000000    -0.816000000    -5.155000000
H    -4.088000000    -0.155000000    -5.061000000
H    -3.434000000    -1.312000000    -4.337000000
O    -0.243000000     0.096000000     8.287000000
H     0.212000000    -0.093000000     7.466000000
H     0.354000000     0.672000000     8.764000000
O    -5.326000000    -0.215000000     3.555000000
H    -5.223000000     0.210000000     2.703000000
H    -6.259000000    -0.421000000     3.608000000
O     0.077000000    -3.650000000     5.087000000
H    -0.084000000    -3.113000000     4.312000000
H    -0.661000000    -4.260000000     5.113000000
O    -3.836000000    -2.813000000     2.743000000
H    -4.306000000    -2.032000000     3.036000000
H    -2.918000000    -2.631000000     2.947000000
O     1.328000000     3.338000000     4.771000000
H     0.467000000     3.133000000     4.405000000
H     1.182000000     4.120000000     5.303000000
O    -2.083000000    -5.384000000     5.310000000
H    -2.416000000    -5.777000000     4.504000000
H    -2.562000000    -5.829000000     6.010000000
O    -5.153000000    -1.600000000    -1.491000000
H    -5.984000000    -1.769000000    -1.936000000
H    -5.054000000    -0.648000000    -1.523000000
O    -5.844000000    -4.184000000     3.767000000
H    -5.591000000    -4.272000000     4.686000000
H    -5.018000000    -4.059000000     3.302000000
O    -0.421000000    -1.898000000    -3.867000000
H    -1.048000000    -2.586000000    -4.092000000
H    -0.876000000    -1.082000000    -4.076000000
O    -2.111000000     3.013000000    -3.030000000
H    -1.611000000     3.654000000    -3.535000000
H    -1.713000000     2.171000000    -3.252000000
O     5.702000000     5.131000000    -0.906000000
H     5.395000000     5.017000000    -0.006000000
H     5.106000000     4.597000000    -1.431000000
O    -0.730000000     0.638000000    -7.359000000
H    -0.824000000    -0.273000000    -7.637000000
H    -1.629000000     0.952000000    -7.260000000
O    -2.356000000    -4.928000000    -1.090000000
H    -3.099000000    -4.368000000    -0.865000000
H    -1.808000000    -4.926000000    -0.305000000
O     2.810000000    -3.419000000     5.390000000
H     3.271000000    -2.828000000     4.794000000
H     1.886000000    -3.314000000     5.163000000
O    -2.998000000    -2.800000000     6.612000000
H    -2.734000000    -1.989000000     6.177000000
H    -2.382000000    -3.457000000     6.288000000
O     3.832000000     3.635000000    -1.747000000
H     3.672000000     2.740000000    -1.447000000
H     2.959000000     3.992000000    -1.908000000
O    -0.933000000    -4.501000000     1.076000000
H    -0.994000000    -3.700000000     1.597000000
H    -0.004000000    -4.574000000     0.858000000
O    -5.567000000     0.906000000     0.868000000
H    -4.764000000     0.799000000     0.357000000
H    -5.786000000     1.834000000     0.777000000
O     2.790000000     1.341000000     5.777000000
H     3.505000000     1.817000000     6.200000000
H     2.147000000     2.017000000     5.562000000
O    -3.537000000    -2.819000000    -3.413000000
H    -4.034000000    -2.601000000    -2.625000000
H    -3.140000000    -3.668000000    -3.218000000
O    -0.005000000     3.942000000    -5.398000000
H     0.478000000     4.713000000    -5.696000000
H     0.638000000     3.234000000    -5.419000000
O    -0.938000000     0.887000000    -4.395000000
H    -1.223000000     1.043000000    -5.296000000
H     0.018000000     0.906000000    -4.440000000
O    -0.341000000     3.016000000     1.798000000
H    -0.959000000     3.438000000     2.394000000
H    -0.879000000     2.724000000     1.062000000
O    -2.364000000     2.707000000    -6.442000000
H    -3.047000000     3.317000000    -6.164000000
H    -1.544000000     3.156000000    -6.239000000
O     1.927000000    -0.779000000    -4.410000000
H     1.100000000    -1.085000000    -4.037000000
H     1.838000000    -0.937000000    -5.350000000
O     1.495000000    -3.131000000    -1.795000000
H     1.485000000    -2.247000000    -1.428000000
H     0.817000000    -3.117000000    -2.470000000
O    -4.447000000    -3.884000000     0.181000000
H    -4.370000000    -3.352000000     0.974000000
H    -4.920000000    -3.326000000    -0.436000000
O     3.478000000    -1.931000000     3.145000000
H     3.784000000    -1.070000000     2.859000000
H     2.527000000    -1.843000000     3.195000000
O     4.305000000     4.509000000     1.282000000
H     3.746000000     5.285000000     1.317000000
H     3.698000000     3.773000000     1.356000000
O     2.442000000     2.607000000     2.482000000
H     2.265000000     2.970000000     3.350000000
H     1.576000000     2.448000000     2.108000000
O    -3.552000000     1.104000000     4.858000000
H    -2.869000000     0.512000000     5.172000000
H    -4.179000000     0.532000000     4.415000000
O     3.047000000    -2.768000000     8.103000000
H     3.010000000    -3.027000000     7.183000000
H     2.131000000    -2.722000000     8.376000000
O     1.863000000     7.556000000    -2.991000000
H     1.198000000     7.011000000    -3.412000000
H     2.003000000     8.279000000    -3.603000000
O     1.017000000     4.483000000    -2.515000000
H     0.470000000     4.682000000    -3.275000000
H     0.394000000     4.336000000    -1.804000000
O     4.314000000     0.024000000    -3.259000000
H     4.395000000    -0.054000000    -2.309000000
H     3.416000000    -0.247000000    -3.447000000
O    -3.970000000     1.294000000    -1.260000000
H    -3.180000000     1.525000000    -1.748000000
H    -4.677000000     1.746000000    -1.720000000
O     0.872000000    -0.467000000     5.832000000
H     0.828000000    -0.768000000     4.924000000
H     1.609000000     0.143000000     5.846000000
O     1.534000000    -5.243000000     0.129000000
H     2.441000000    -5.450000000     0.354000000
H     1.600000000    -4.692000000    -0.651000000
O    -3.012000000     5.545000000    -1.817000000
H    -2.675000000     4.697000000    -2.108000000
H    -2.473000000     6.188000000    -2.277000000
O    -2.404000000    -6.318000000     2.744000000
H    -1.896000000    -5.735000000     2.179000000
H    -3.268000000    -6.356000000     2.334000000
O     0.367000000    -3.853000000     7.855000000
H     0.084000000    -3.529000000     7.000000000
H    -0.448000000    -4.006000000     8.334000000
O     5.820000000     2.333000000    -4.108000000
H     5.347000000     1.561000000    -3.798000000
H     6.064000000     2.802000000    -3.309000000
O     4.335000000     0.580000000     2.355000000
H     5.128000000     0.848000000     2.819000000
H     3.737000000     1.322000000     2.455000000
O     4.824000000     1.163000000    -0.419000000
H     5.682000000     1.270000000    -0.009000000
H     4.307000000     0.683000000     0.229000000
O    -1.590000000    -1.002000000     5.319000000
H    -0.747000000    -0.786000000     5.719000000
H    -1.362000000    -1.507000000     4.539000000
