158
-3018.33971
C     0.823000000    -0.984000000    -0.749000000
H     1.600000000    -1.643000000    -1.128000000
C     0.945000000     0.404000000    -0.810000000
H     1.634000000     0.899000000    -1.490000000
C     0.132000000     1.212000000    -0.060000000
H     0.279000000     2.260000000    -0.027000000
C    -0.847000000     0.676000000     0.780000000
H    -1.388000000     1.315000000     1.473000000
C    -0.916000000    -0.735000000     0.876000000
H    -1.635000000    -1.135000000     1.586000000
C    -0.122000000    -1.573000000     0.099000000
C    -0.293000000    -3.108000000     0.148000000
O    -1.088000000    -3.600000000     0.914000000
O     0.198000000    -3.770000000    -0.758000000
O     4.360000000     4.858000000     2.026000000
H     3.427000000     4.766000000     1.835000000
H     4.604000000     4.026000000     2.433000000
O     4.829000000     4.188000000    -3.138000000
H     5.714000000     4.402000000    -2.843000000
H     4.343000000     4.016000000    -2.331000000
O    -1.342000000     4.006000000     3.203000000
H    -1.982000000     3.827000000     2.515000000
H    -1.617000000     3.455000000     3.936000000
O     1.453000000    -6.042000000     3.762000000
H     0.938000000    -6.558000000     3.142000000
H     1.015000000    -6.172000000     4.604000000
O    -3.332000000    -3.323000000     2.662000000
H    -2.470000000    -3.331000000     2.246000000
H    -3.473000000    -4.229000000     2.936000000
O    -1.119000000    -6.260000000     0.883000000
H    -1.319000000    -5.328000000     0.965000000
H    -1.719000000    -6.576000000     0.208000000
O     3.876000000     3.479000000    -0.723000000
H     4.353000000     3.085000000     0.007000000
H     3.027000000     3.721000000    -0.351000000
O     5.381000000     0.975000000    -0.850000000
H     6.284000000     1.293000000    -0.841000000
H     4.859000000     1.745000000    -1.072000000
O     1.855000000     4.211000000     1.022000000
H     1.287000000     3.520000000     1.363000000
H     1.252000000     4.847000000     0.636000000
O     2.617000000     2.887000000    -4.490000000
H     2.939000000     2.467000000    -5.288000000
H     3.408000000     3.177000000    -4.036000000
O    -0.416000000    -3.816000000    -4.927000000
H    -0.949000000    -3.243000000    -5.478000000
H    -0.261000000    -4.591000000    -5.468000000
O    -2.093000000    -2.618000000    -2.670000000
H    -1.893000000    -1.696000000    -2.832000000
H    -1.587000000    -2.840000000    -1.889000000
O     0.253000000     4.660000000    -4.908000000
H     0.605000000     5.287000000    -5.540000000
H     1.013000000     4.150000000    -4.628000000
O    -2.838000000    -5.282000000    -4.147000000
H    -1.950000000    -5.490000000    -3.856000000
H    -2.969000000    -4.371000000    -3.885000000
O     4.529000000     6.672000000    -0.473000000
H     4.085000000     6.745000000    -1.318000000
H     3.889000000     6.249000000     0.099000000
O     5.884000000    -1.102000000    -2.683000000
H     5.500000000    -0.704000000    -1.902000000
H     6.523000000    -0.458000000    -2.991000000
O     3.385000000    -5.259000000     2.214000000
H     3.167000000    -4.342000000     2.050000000
H     2.625000000    -5.606000000     2.682000000
O    -2.494000000    -7.052000000    -1.092000000
H    -3.362000000    -6.674000000    -1.226000000
H    -2.478000000    -7.823000000    -1.660000000
O    -1.360000000    -7.749000000     3.308000000
H    -1.326000000    -7.288000000     2.470000000
H    -1.434000000    -8.673000000     3.069000000
O    -5.532000000    -1.518000000     2.642000000
H    -4.732000000    -1.773000000     3.102000000
H    -5.282000000    -0.743000000     2.139000000
O     2.163000000     1.303000000     3.181000000
H     1.225000000     1.204000000     3.015000000
H     2.222000000     1.484000000     4.119000000
O     1.658000000    -2.773000000    -3.560000000
H     1.219000000    -3.094000000    -2.773000000
H     1.176000000    -3.174000000    -4.284000000
O    -2.279000000     2.460000000     5.229000000
H    -3.120000000     2.879000000     5.409000000
H    -2.506000000     1.567000000     4.969000000
O     0.905000000    -8.403000000     0.725000000
H     0.430000000    -9.057000000     0.214000000
H     0.321000000    -7.645000000     0.746000000
O     0.522000000    -0.378000000    -4.341000000
H     0.223000000     0.084000000    -3.558000000
H     0.972000000    -1.153000000    -4.005000000
O    -3.526000000     3.242000000     1.701000000
H    -3.906000000     3.605000000     2.501000000
H    -4.095000000     2.505000000     1.478000000
O     5.308000000    -0.627000000     1.552000000
H     5.132000000    -0.510000000     0.618000000
H     6.252000000    -0.488000000     1.636000000
O     0.183000000     5.399000000    -0.849000000
H     0.800000000     6.128000000    -0.906000000
H    -0.680000000     5.814000000    -0.856000000
O    -0.699000000    -5.720000000    -2.461000000
H    -1.466000000    -6.012000000    -1.968000000
H    -0.344000000    -4.995000000    -1.946000000
O    -0.437000000    -3.388000000     3.445000000
H     0.434000000    -2.992000000     3.474000000
H    -0.594000000    -3.552000000     2.515000000
O     2.796000000    -2.391000000     1.282000000
H     3.438000000    -1.683000000     1.229000000
H     2.946000000    -2.911000000     0.493000000
O    -2.325000000     6.762000000    -1.323000000
H    -3.110000000     6.249000000    -1.131000000
H    -2.518000000     7.191000000    -2.157000000
O    -2.080000000    -5.572000000     4.696000000
H    -1.684000000    -6.345000000     4.293000000
H    -1.622000000    -4.832000000     4.297000000
O    -3.281000000    -0.216000000     4.693000000
H    -3.361000000    -1.163000000     4.807000000
H    -4.174000000     0.114000000     4.798000000
O     4.489000000     2.044000000     2.038000000
H     3.611000000     1.776000000     2.310000000
H     4.837000000     1.286000000     1.569000000
O    -4.238000000     4.877000000    -0.995000000
H    -5.169000000     4.967000000    -1.198000000
H    -4.214000000     4.302000000    -0.230000000
O    -3.129000000     2.502000000    -1.313000000
H    -3.311000000     3.403000000    -1.578000000
H    -2.872000000     2.571000000    -0.393000000
O     0.677000000     5.688000000     3.459000000
H     0.058000000     6.309000000     3.075000000
H     0.208000000     4.853000000     3.461000000
O    -4.612000000    -3.448000000    -1.191000000
H    -4.130000000    -2.626000000    -1.277000000
H    -4.461000000    -3.720000000    -0.286000000
O    -1.225000000    -2.657000000     6.166000000
H    -2.146000000    -2.643000000     6.424000000
H    -1.222000000    -3.078000000     5.307000000
O    -1.603000000     0.808000000    -2.652000000
H    -2.137000000     1.545000000    -2.357000000
H    -0.952000000     0.691000000    -1.959000000
O     4.835000000    -4.033000000    -3.066000000
H     4.064000000    -3.833000000    -2.535000000
H     5.243000000    -3.182000000    -3.226000000
O    -5.506000000     1.251000000     1.611000000
H    -5.578000000     1.574000000     2.509000000
H    -6.308000000     1.550000000     1.184000000
O     3.985000000    -0.689000000    -5.173000000
H     4.257000000    -0.937000000    -4.289000000
H     3.811000000    -1.521000000    -5.612000000
O     2.230000000    -2.260000000     4.058000000
H     2.942000000    -1.924000000     4.603000000
H     2.520000000    -2.100000000     3.160000000
O     3.212000000    -7.124000000    -1.051000000
H     2.379000000    -7.366000000    -0.646000000
H     3.777000000    -7.884000000    -0.908000000
O     1.745000000    -6.502000000    -3.657000000
H     2.383000000    -6.093000000    -3.073000000
H     0.897000000    -6.183000000    -3.347000000
O     2.807000000    -4.415000000    -0.969000000
H     3.135000000    -5.306000000    -0.844000000
H     1.865000000    -4.483000000    -0.815000000
