158
-3008.80142
C     0.891000000    -1.172000000    -0.244000000
H     1.638000000    -1.954000000    -0.354000000
C     1.181000000     0.236000000    -0.516000000
H     2.140000000     0.561000000    -0.912000000
C     0.239000000     1.188000000    -0.230000000
H     0.485000000     2.215000000    -0.423000000
C    -1.012000000     0.816000000     0.357000000
H    -1.686000000     1.591000000     0.714000000
C    -1.239000000    -0.512000000     0.647000000
H    -2.142000000    -0.794000000     1.183000000
C    -0.332000000    -1.536000000     0.328000000
C    -0.639000000    -2.992000000     0.529000000
O    -1.740000000    -3.381000000     1.017000000
O     0.090000000    -3.816000000     0.096000000
O     3.096000000     4.351000000     0.847000000
H     2.225000000     4.700000000     0.654000000
H     2.996000000     3.914000000     1.693000000
O     2.489000000    -7.656000000     2.893000000
H     1.613000000    -8.026000000     2.787000000
H     2.498000000    -6.892000000     2.317000000
O    -0.637000000     0.900000000     5.251000000
H    -1.315000000     1.528000000     5.003000000
H    -0.180000000     0.705000000     4.433000000
O     5.197000000     2.371000000    -3.453000000
H     6.117000000     2.293000000    -3.706000000
H     5.117000000     3.262000000    -3.114000000
O    -1.024000000     4.010000000     1.557000000
H    -1.633000000     4.245000000     0.857000000
H    -1.172000000     3.076000000     1.700000000
O    -5.826000000    -6.141000000     2.503000000
H    -5.032000000    -5.612000000     2.432000000
H    -6.106000000    -6.032000000     3.412000000
O    -0.962000000    -6.628000000     3.276000000
H    -1.521000000    -6.180000000     2.641000000
H    -0.339000000    -5.960000000     3.560000000
O    -3.854000000    -3.151000000    -0.536000000
H    -3.072000000    -3.249000000     0.008000000
H    -3.737000000    -3.788000000    -1.240000000
O    -3.053000000    -5.380000000     1.949000000
H    -2.683000000    -4.568000000     1.603000000
H    -3.436000000    -5.813000000     1.186000000
O    -0.244000000     4.256000000    -4.507000000
H     0.221000000     3.480000000    -4.820000000
H     0.450000000     4.868000000    -4.263000000
O     3.727000000     4.185000000    -1.703000000
H     3.637000000     4.284000000    -0.755000000
H     3.191000000     3.421000000    -1.916000000
O     5.547000000     1.682000000    -0.571000000
H     6.386000000     2.062000000    -0.834000000
H     4.912000000     2.063000000    -1.177000000
O     3.844000000     0.140000000     3.311000000
H     4.611000000     0.428000000     2.817000000
H     4.179000000    -0.040000000     4.189000000
O     2.825000000     3.458000000     3.502000000
H     2.138000000     4.023000000     3.855000000
H     2.565000000     2.574000000     3.762000000
O     2.181000000    -0.558000000    -4.936000000
H     1.697000000    -1.282000000    -4.540000000
H     2.986000000    -0.498000000    -4.421000000
O    -1.425000000     0.280000000    -2.892000000
H    -1.595000000     1.214000000    -2.769000000
H    -0.614000000     0.118000000    -2.410000000
O    -2.434000000     6.351000000    -3.812000000
H    -1.665000000     5.784000000    -3.865000000
H    -2.772000000     6.380000000    -4.707000000
O     0.916000000     1.797000000    -5.359000000
H     1.300000000     0.941000000    -5.170000000
H     0.881000000     1.838000000    -6.314000000
O    -4.074000000    -0.544000000    -3.140000000
H    -4.153000000    -1.211000000    -2.457000000
H    -3.335000000    -0.004000000    -2.863000000
O     0.571000000     7.955000000     1.190000000
H     0.485000000     8.395000000     0.344000000
H     0.439000000     7.028000000     0.992000000
O     4.189000000    -0.695000000    -2.945000000
H     4.725000000    -1.141000000    -2.289000000
H     4.573000000     0.179000000    -3.013000000
O     2.191000000    -5.338000000     1.572000000
H     2.837000000    -4.750000000     1.181000000
H     1.357000000    -5.067000000     1.188000000
O    -3.990000000    -6.612000000    -0.449000000
H    -4.913000000    -6.464000000    -0.654000000
H    -3.551000000    -6.607000000    -1.299000000
O    -4.158000000    -0.063000000     2.699000000
H    -5.083000000    -0.061000000     2.945000000
H    -4.022000000    -0.917000000     2.287000000
O     0.947000000     0.472000000     3.104000000
H     0.648000000     0.154000000     2.252000000
H     1.900000000     0.382000000     3.072000000
O    -2.725000000     1.948000000     3.700000000
H    -2.919000000     2.453000000     2.910000000
H    -3.241000000     1.147000000     3.604000000
O     0.314000000    -8.832000000     1.053000000
H     0.004000000    -8.008000000     0.677000000
H    -0.470000000    -9.236000000     1.424000000
O    -1.604000000    -2.893000000     5.734000000
H    -2.175000000    -3.652000000     5.610000000
H    -1.027000000    -2.901000000     4.970000000
O     1.019000000    -2.854000000    -3.748000000
H     1.447000000    -3.363000000    -3.060000000
H     0.333000000    -3.432000000    -4.083000000
O     5.847000000    -1.049000000     0.178000000
H     5.977000000    -0.122000000    -0.019000000
H     6.041000000    -1.125000000     1.113000000
O     0.786000000     5.388000000     0.095000000
H     0.660000000     5.366000000    -0.853000000
H     0.056000000     4.878000000     0.446000000
O    -0.552000000    -6.235000000    -1.249000000
H    -1.407000000    -5.821000000    -1.127000000
H     0.078000000    -5.525000000    -1.128000000
O     0.027000000    -3.606000000     3.594000000
H     0.673000000    -2.970000000     3.288000000
H    -0.619000000    -3.649000000     2.890000000
O     4.284000000    -3.610000000     0.864000000
H     4.987000000    -4.146000000     0.497000000
H     4.089000000    -2.970000000     0.180000000
O    -3.324000000    -4.565000000     4.562000000
H    -3.347000000    -5.468000000     4.880000000
H    -2.778000000    -4.602000000     3.776000000
O    -3.106000000    -4.766000000    -2.637000000
H    -3.428000000    -5.212000000    -3.420000000
H    -2.190000000    -4.570000000    -2.832000000
O     5.505000000     2.573000000     1.969000000
H     5.348000000     2.132000000     1.135000000
H     6.406000000     2.341000000     2.197000000
O     0.623000000     6.089000000    -2.584000000
H     1.390000000     6.136000000    -3.155000000
H     0.688000000     6.869000000    -2.032000000
O    -2.061000000     5.606000000    -0.607000000
H    -2.997000000     5.461000000    -0.748000000
H    -1.836000000     6.316000000    -1.208000000
O    -2.036000000     5.593000000     3.734000000
H    -2.762000000     5.813000000     3.150000000
H    -1.548000000     4.917000000     3.264000000
O    -6.420000000    -3.249000000     2.198000000
H    -6.134000000    -2.417000000     1.820000000
H    -6.045000000    -3.253000000     3.078000000
O    -3.767000000     3.043000000    -4.728000000
H    -3.385000000     3.264000000    -3.879000000
H    -3.015000000     2.822000000    -5.279000000
O    -6.064000000    -1.373000000     0.047000000
H    -5.771000000    -0.463000000     0.008000000
H    -5.286000000    -1.885000000    -0.175000000
O    -1.822000000     3.100000000    -2.317000000
H    -1.878000000     3.819000000    -1.687000000
H    -1.182000000     3.398000000    -2.964000000
O     4.031000000    -3.058000000    -4.006000000
H     3.205000000    -3.471000000    -3.754000000
H     3.968000000    -2.166000000    -3.665000000
O    -3.876000000     3.405000000     1.605000000
H    -4.730000000     3.024000000     1.808000000
H    -4.079000000     4.189000000     1.094000000
O     2.159000000    -2.203000000     2.547000000
H     2.756000000    -1.537000000     2.887000000
H     2.727000000    -2.825000000     2.093000000
O     2.116000000    -4.283000000    -1.873000000
H     2.800000000    -4.899000000    -1.611000000
H     1.530000000    -4.239000000    -1.118000000
