158
-3009.67088
C     0.916000000    -1.221000000     0.141000000
H     1.636000000    -2.033000000     0.079000000
C     1.251000000     0.149000000    -0.198000000
H     2.247000000     0.447000000    -0.516000000
C     0.317000000     1.137000000    -0.343000000
H     0.650000000     2.147000000    -0.618000000
C    -0.978000000     0.828000000    -0.017000000
H    -1.732000000     1.610000000    -0.040000000
C    -1.350000000    -0.452000000     0.292000000
H    -2.413000000    -0.574000000     0.486000000
C    -0.427000000    -1.452000000     0.494000000
C    -0.839000000    -2.880000000     0.943000000
O    -1.772000000    -2.973000000     1.677000000
O    -0.240000000    -3.884000000     0.615000000
O     3.238000000     4.961000000     1.437000000
H     3.872000000     5.052000000     0.726000000
H     3.569000000     4.232000000     1.961000000
O     3.805000000    -5.559000000     3.280000000
H     2.870000000    -5.399000000     3.153000000
H     3.898000000    -6.508000000     3.200000000
O     0.386000000    -4.396000000     5.170000000
H     0.729000000    -4.653000000     4.314000000
H    -0.334000000    -3.797000000     4.970000000
O    -4.198000000    -3.094000000     2.675000000
H    -4.283000000    -2.402000000     3.330000000
H    -3.308000000    -2.996000000     2.336000000
O     5.166000000    -3.181000000    -3.954000000
H     4.674000000    -3.086000000    -3.139000000
H     5.643000000    -2.356000000    -4.043000000
O    -2.449000000    -5.714000000     1.236000000
H    -2.026000000    -4.889000000     0.997000000
H    -1.749000000    -6.364000000     1.187000000
O     6.038000000    -0.318000000    -3.319000000
H     5.450000000    -0.611000000    -2.623000000
H     6.887000000    -0.221000000    -2.889000000
O     5.767000000     2.090000000    -1.485000000
H     5.399000000     2.874000000    -1.076000000
H     5.177000000     1.384000000    -1.222000000
O     5.194000000     0.510000000     1.399000000
H     6.151000000     0.510000000     1.369000000
H     4.952000000    -0.411000000     1.301000000
O     4.370000000    -2.300000000     1.129000000
H     3.846000000    -3.056000000     0.866000000
H     4.983000000    -2.647000000     1.778000000
O     4.681000000     3.012000000     2.522000000
H     5.254000000     3.129000000     3.280000000
H     4.864000000     2.122000000     2.219000000
O    -0.577000000    -7.678000000     1.331000000
H    -1.204000000    -8.138000000     0.772000000
H     0.181000000    -8.261000000     1.371000000
O     4.338000000    -1.192000000    -1.771000000
H     3.561000000    -1.647000000    -2.095000000
H     4.500000000    -1.578000000    -0.910000000
O     0.401000000     8.010000000    -0.056000000
H     1.176000000     8.537000000     0.139000000
H     0.605000000     7.144000000     0.297000000
O    -0.110000000    -1.166000000    -4.070000000
H    -0.477000000    -1.799000000    -3.453000000
H     0.785000000    -1.471000000    -4.221000000
O    -3.307000000    -0.040000000    -2.331000000
H    -2.954000000    -0.222000000    -3.201000000
H    -2.563000000     0.303000000    -1.837000000
O     0.903000000     2.700000000    -4.191000000
H     0.180000000     2.562000000    -4.804000000
H     0.895000000     1.922000000    -3.633000000
O     2.412000000    -4.398000000     0.647000000
H     1.459000000    -4.380000000     0.563000000
H     2.628000000    -5.327000000     0.728000000
O     0.873000000     5.245000000     0.150000000
H     0.251000000     4.917000000     0.799000000
H     1.714000000     5.253000000     0.607000000
O     2.978000000     1.363000000    -3.008000000
H     2.887000000     1.014000000    -3.895000000
H     3.581000000     0.759000000    -2.574000000
O     0.757000000    -5.485000000     2.638000000
H     0.353000000    -6.225000000     2.184000000
H     0.584000000    -4.734000000     2.071000000
O     1.987000000     3.525000000     4.472000000
H     2.570000000     3.617000000     5.225000000
H     2.438000000     2.909000000     3.894000000
O     1.422000000     5.540000000    -6.439000000
H     0.870000000     4.954000000    -5.921000000
H     1.124000000     5.417000000    -7.340000000
O    -5.878000000     0.433000000    -3.184000000
H    -4.989000000     0.147000000    -2.973000000
H    -5.787000000     0.909000000    -4.010000000
O     2.909000000    -3.381000000    -2.265000000
H     1.985000000    -3.574000000    -2.420000000
H     3.160000000    -3.968000000    -1.553000000
O    -0.517000000     1.677000000     3.035000000
H    -1.458000000     1.805000000     3.151000000
H    -0.259000000     2.349000000     2.404000000
O    -4.659000000    -2.551000000    -1.470000000
H    -4.148000000    -1.761000000    -1.646000000
H    -4.016000000    -3.187000000    -1.157000000
O    -1.249000000    -0.689000000     6.302000000
H    -0.990000000    -1.213000000     5.544000000
H    -0.531000000    -0.066000000     6.418000000
O    -4.751000000     3.090000000    -0.660000000
H    -5.385000000     2.983000000     0.049000000
H    -5.286000000     3.249000000    -1.437000000
O    -1.664000000    -3.637000000    -2.999000000
H    -0.926000000    -4.238000000    -2.899000000
H    -2.407000000    -4.104000000    -2.617000000
O     1.523000000     7.473000000    -2.843000000
H     1.095000000     6.623000000    -2.741000000
H     1.028000000     8.060000000    -2.271000000
O    -3.581000000    -5.257000000    -1.378000000
H    -3.694000000    -5.983000000    -1.992000000
H    -3.663000000    -5.660000000    -0.513000000
O    -4.731000000    -5.717000000     3.186000000
H    -4.034000000    -5.799000000     2.534000000
H    -4.631000000    -4.831000000     3.533000000
O    -0.772000000    -1.286000000     3.937000000
H    -0.432000000    -1.829000000     3.227000000
H    -1.008000000    -0.459000000     3.516000000
O     3.382000000     4.169000000    -4.285000000
H     2.728000000     3.569000000    -3.925000000
H     2.888000000     4.728000000    -4.885000000
O    -2.315000000     6.697000000    -2.972000000
H    -2.024000000     7.576000000    -3.214000000
H    -1.505000000     6.205000000    -2.838000000
O    -6.260000000     0.280000000     1.352000000
H    -6.315000000     1.228000000     1.469000000
H    -6.579000000     0.129000000     0.462000000
O    -4.670000000    -1.246000000     4.722000000
H    -4.369000000    -0.719000000     5.462000000
H    -5.506000000    -1.612000000     5.012000000
O    -5.963000000    -3.489000000     0.683000000
H    -5.471000000    -3.108000000    -0.045000000
H    -5.413000000    -3.334000000     1.451000000
O     4.508000000     4.891000000    -1.030000000
H     5.336000000     5.186000000    -1.409000000
H     3.924000000     4.784000000    -1.781000000
O    -3.425000000     0.924000000     3.046000000
H    -3.471000000     0.175000000     3.640000000
H    -3.995000000     0.685000000     2.315000000
O    -0.184000000     4.780000000    -2.491000000
H     0.264000000     4.104000000    -2.998000000
H     0.099000000     4.631000000    -1.589000000
O    -3.709000000     5.316000000     0.858000000
H    -4.436000000     5.606000000     1.409000000
H    -4.070000000     4.591000000     0.348000000
O    -1.044000000     4.515000000     1.949000000
H    -1.958000000     4.351000000     1.720000000
H    -1.073000000     4.813000000     2.858000000
O    -4.037000000     4.371000000    -3.032000000
H    -3.416000000     5.048000000    -2.764000000
H    -3.723000000     3.574000000    -2.603000000
O     2.240000000    -0.414000000     3.408000000
H     2.432000000    -1.242000000     2.968000000
H     1.554000000    -0.013000000     2.874000000
O     0.401000000    -5.221000000    -2.281000000
H     0.114000000    -5.094000000    -1.376000000
H     0.529000000    -6.166000000    -2.362000000
O    -2.108000000    -3.843000000     4.321000000
H    -3.044000000    -3.657000000     4.402000000
H    -1.866000000    -3.486000000     3.466000000
