158
-3013.89961
C     0.515000000    -1.414000000     0.138000000
H     0.974000000    -2.397000000     0.070000000
C     0.683000000    -0.568000000    -0.949000000
H     1.237000000    -0.885000000    -1.829000000
C     0.140000000     0.761000000    -0.922000000
H     0.213000000     1.347000000    -1.788000000
C    -0.557000000     1.159000000     0.139000000
H    -0.899000000     2.191000000     0.143000000
C    -0.726000000     0.355000000     1.270000000
H    -1.042000000     0.789000000     2.216000000
C    -0.294000000    -0.974000000     1.199000000
C    -0.559000000    -1.954000000     2.270000000
O    -1.203000000    -1.538000000     3.211000000
O     0.016000000    -3.040000000     2.206000000
O     3.601000000    -4.706000000     5.359000000
H     4.345000000    -4.172000000     5.085000000
H     2.920000000    -4.519000000     4.713000000
O    -1.871000000     4.496000000     3.410000000
H    -2.163000000     5.407000000     3.448000000
H    -2.630000000     3.989000000     3.698000000
O     2.615000000     1.109000000    -3.551000000
H     2.182000000     1.075000000    -4.404000000
H     3.387000000     0.551000000    -3.652000000
O    -2.005000000    -3.187000000     5.074000000
H    -2.010000000    -2.484000000     5.724000000
H    -1.593000000    -2.797000000     4.303000000
O     2.260000000    -4.878000000    -2.693000000
H     1.508000000    -4.788000000    -2.109000000
H     1.924000000    -5.368000000    -3.443000000
O     0.430000000    -0.627000000     7.874000000
H     0.187000000     0.295000000     7.955000000
H     0.563000000    -0.757000000     6.935000000
O    -2.396000000    -6.082000000     4.136000000
H    -2.191000000    -5.165000000     3.950000000
H    -3.313000000    -6.071000000     4.412000000
O     1.701000000     4.728000000    -5.560000000
H     2.549000000     4.701000000    -5.116000000
H     1.765000000     5.475000000    -6.154000000
O     2.494000000     1.135000000     1.495000000
H     1.929000000     1.167000000     0.723000000
H     1.920000000     1.378000000     2.222000000
O     4.753000000    -2.534000000     4.232000000
H     3.887000000    -2.617000000     3.834000000
H     5.130000000    -1.754000000     3.825000000
O     4.001000000    -3.697000000    -0.833000000
H     4.661000000    -4.391000000    -0.827000000
H     3.393000000    -3.952000000    -1.527000000
O     4.614000000    -1.075000000    -0.378000000
H     3.824000000    -0.877000000     0.125000000
H     4.556000000    -2.014000000    -0.554000000
O    -0.802000000     3.100000000    -4.868000000
H    -0.779000000     2.249000000    -5.305000000
H    -0.023000000     3.555000000    -5.188000000
O    -4.248000000     0.711000000    -3.309000000
H    -4.957000000     0.975000000    -2.722000000
H    -3.521000000     0.496000000    -2.725000000
O    -2.762000000    -1.100000000    -0.777000000
H    -3.044000000    -0.228000000    -0.501000000
H    -1.806000000    -1.046000000    -0.799000000
O     1.114000000     1.010000000     3.721000000
H     0.723000000     0.143000000     3.834000000
H     1.927000000     0.973000000     4.225000000
O     3.739000000    -4.929000000     1.687000000
H     4.588000000    -4.505000000     1.561000000
H     3.276000000    -4.788000000     0.861000000
O    -0.494000000    -3.563000000    -3.269000000
H    -0.878000000    -4.288000000    -2.776000000
H    -1.028000000    -2.804000000    -3.036000000
O     1.369000000    -6.174000000     2.469000000
H     2.075000000    -5.912000000     1.878000000
H     0.899000000    -5.362000000     2.656000000
O     0.825000000     5.467000000     3.054000000
H     1.534000000     4.825000000     3.073000000
H     0.084000000     5.019000000     3.462000000
O    -2.340000000    -4.494000000     7.456000000
H    -1.984000000    -4.292000000     6.591000000
H    -2.553000000    -3.640000000     7.833000000
O    -3.036000000     4.713000000    -4.538000000
H    -3.088000000     4.565000000    -3.594000000
H    -2.256000000     4.230000000    -4.813000000
O     0.049000000     4.673000000    -2.316000000
H    -0.352000000     4.204000000    -3.048000000
H    -0.688000000     4.919000000    -1.757000000
O     1.919000000    -2.542000000    -4.721000000
H     1.210000000    -2.715000000    -5.341000000
H     1.688000000    -3.052000000    -3.944000000
O    -1.188000000    -4.811000000     0.475000000
H    -0.726000000    -4.218000000     1.068000000
H    -0.499000000    -5.358000000     0.098000000
O    -3.811000000     0.899000000    -5.992000000
H    -3.925000000     1.831000000    -6.173000000
H    -3.995000000     0.812000000    -5.056000000
O     2.012000000     6.592000000    -2.990000000
H     1.358000000     7.275000000    -2.839000000
H     1.627000000     5.803000000    -2.608000000
O    -3.950000000    -2.763000000     1.054000000
H    -3.578000000    -2.253000000     0.335000000
H    -3.482000000    -3.598000000     1.023000000
O     0.970000000    -1.460000000     4.959000000
H     1.511000000    -2.220000000     4.744000000
H     0.189000000    -1.560000000     4.415000000
O    -4.041000000     1.595000000    -0.663000000
H    -4.224000000     2.116000000     0.118000000
H    -4.900000000     1.443000000    -1.056000000
O     3.831000000     3.126000000    -2.057000000
H     3.278000000     2.398000000    -2.340000000
H     3.858000000     3.714000000    -2.812000000
O     1.074000000    -6.238000000    -0.481000000
H     0.621000000    -7.071000000    -0.609000000
H     1.999000000    -6.475000000    -0.418000000
O    -4.064000000    -5.510000000     0.301000000
H    -3.268000000    -5.304000000     0.790000000
H    -4.143000000    -6.462000000     0.363000000
O    -3.017000000     4.216000000    -1.881000000
H    -3.780000000     4.780000000    -1.756000000
H    -3.329000000     3.338000000    -1.663000000
O    -4.710000000    -1.119000000     5.841000000
H    -4.119000000    -0.829000000     5.146000000
H    -5.281000000    -1.760000000     5.419000000
O     0.048000000     3.140000000     5.567000000
H     0.377000000     2.419000000     5.030000000
H    -0.613000000     3.563000000     5.019000000
O     2.224000000     0.948000000    -6.794000000
H     1.443000000     1.278000000    -6.351000000
H     2.381000000     1.573000000    -7.502000000
O    -5.056000000     2.845000000     1.481000000
H    -5.476000000     2.012000000     1.697000000
H    -4.686000000     3.149000000     2.310000000
O    -1.191000000     5.055000000     0.278000000
H    -1.275000000     4.969000000     1.228000000
H    -1.843000000     4.451000000    -0.076000000
O    -3.811000000    -2.624000000    -3.027000000
H    -3.338000000    -2.357000000    -2.239000000
H    -3.468000000    -3.494000000    -3.230000000
O    -3.837000000     2.879000000     4.168000000
H    -3.736000000     1.927000000     4.186000000
H    -4.604000000     3.048000000     4.716000000
O    -5.352000000    -0.282000000     1.955000000
H    -5.606000000    -1.202000000     2.025000000
H    -5.373000000    -0.098000000     1.016000000
O    -3.422000000     0.201000000     3.785000000
H    -4.021000000    -0.031000000     3.075000000
H    -2.586000000    -0.188000000     3.531000000
O    -0.563000000     0.268000000    -5.672000000
H    -0.482000000    -0.523000000    -6.204000000
H    -1.403000000     0.170000000    -5.223000000
O     4.934000000     2.453000000     0.335000000
H     4.718000000     2.770000000    -0.542000000
H     4.379000000     1.683000000     0.454000000
O     3.996000000    -1.243000000    -6.318000000
H     3.454000000    -0.501000000    -6.589000000
H     3.420000000    -1.771000000    -5.766000000
O     2.318000000     4.853000000    -0.404000000
H     1.528000000     4.314000000    -0.359000000
H     2.925000000     4.345000000    -0.941000000
O     2.223000000    -3.355000000     3.335000000
H     1.439000000    -3.133000000     2.832000000
H     2.770000000    -3.847000000     2.722000000
