158
-3030.60126
C     0.481000000    -1.297000000    -0.198000000
H     0.900000000    -2.270000000    -0.443000000
C     0.658000000    -0.250000000    -1.096000000
H     1.300000000    -0.487000000    -1.941000000
C     0.147000000     0.995000000    -0.815000000
H     0.248000000     1.883000000    -1.455000000
C    -0.556000000     1.098000000     0.436000000
H    -1.011000000     2.055000000     0.681000000
C    -0.671000000     0.048000000     1.377000000
H    -1.300000000     0.199000000     2.251000000
C    -0.146000000    -1.188000000     1.050000000
C    -0.419000000    -2.334000000     1.999000000
O    -0.699000000    -2.208000000     3.182000000
O    -0.170000000    -3.435000000     1.636000000
O    -0.037000000     2.779000000     6.561000000
H     0.839000000     3.140000000     6.696000000
H    -0.188000000     2.862000000     5.619000000
O     2.141000000    -6.944000000     3.303000000
H     2.909000000    -6.651000000     3.794000000
H     1.906000000    -6.195000000     2.756000000
O    -0.399000000     3.133000000     3.617000000
H    -0.679000000     4.046000000     3.559000000
H    -1.111000000     2.638000000     3.212000000
O     1.467000000     0.950000000    -4.921000000
H     1.148000000     0.111000000    -5.255000000
H     0.697000000     1.518000000    -4.925000000
O    -2.240000000    -5.080000000     2.293000000
H    -2.025000000    -6.006000000     2.400000000
H    -1.390000000    -4.641000000     2.246000000
O     6.315000000    -0.480000000    -0.677000000
H     6.555000000    -1.033000000    -1.420000000
H     5.364000000    -0.566000000    -0.610000000
O     3.328000000    -0.853000000     1.631000000
H     3.004000000    -0.783000000     0.733000000
H     2.829000000    -0.197000000     2.117000000
O     0.660000000     6.639000000     1.238000000
H     0.571000000     7.401000000     0.665000000
H     1.059000000     5.968000000     0.684000000
O     3.459000000    -2.434000000     4.590000000
H     3.343000000    -2.841000000     3.731000000
H     4.199000000    -2.902000000     4.979000000
O     1.983000000    -2.599000000     7.759000000
H     1.177000000    -2.372000000     7.297000000
H     2.625000000    -2.747000000     7.063000000
O     3.048000000    -3.311000000    -2.472000000
H     3.542000000    -3.465000000    -3.277000000
H     2.174000000    -3.657000000    -2.658000000
O     3.739000000    -0.601000000    -1.728000000
H     4.259000000    -0.352000000    -2.492000000
H     3.135000000    -1.267000000    -2.056000000
O    -3.589000000     0.181000000    -4.172000000
H    -4.487000000    -0.131000000    -4.292000000
H    -3.119000000    -0.574000000    -3.817000000
O    -1.676000000     5.657000000     3.225000000
H    -1.701000000     6.525000000     3.627000000
H    -1.056000000     5.746000000     2.501000000
O    -2.895000000    -0.411000000    -0.924000000
H    -3.561000000     0.253000000    -0.746000000
H    -2.107000000    -0.081000000    -0.492000000
O     1.453000000    -0.625000000     4.241000000
H     0.721000000    -1.131000000     3.888000000
H     2.154000000    -1.266000000     4.355000000
O     3.405000000    -4.794000000    -0.094000000
H     4.328000000    -4.758000000     0.157000000
H     3.289000000    -4.050000000    -0.686000000
O    -3.062000000     2.412000000    -2.783000000
H    -3.339000000     1.615000000    -3.235000000
H    -3.342000000     2.283000000    -1.877000000
O    -2.407000000     6.600000000     0.404000000
H    -2.449000000     5.683000000     0.674000000
H    -2.134000000     6.568000000    -0.513000000
O    -2.050000000    -4.646000000     6.089000000
H    -2.653000000    -4.265000000     5.451000000
H    -1.271000000    -4.868000000     5.579000000
O     1.232000000    -3.961000000    -4.884000000
H     0.617000000    -3.940000000    -4.150000000
H     1.195000000    -4.863000000    -5.202000000
O     0.312000000    -4.788000000    -0.501000000
H     0.084000000    -4.183000000     0.204000000
H     1.235000000    -4.992000000    -0.351000000
O    -4.679000000    -2.608000000    -1.161000000
H    -4.091000000    -1.904000000    -0.885000000
H    -4.114000000    -3.377000000    -1.236000000
O     0.619000000    -4.112000000     4.708000000
H     1.436000000    -3.982000000     4.227000000
H    -0.020000000    -3.569000000     4.246000000
O    -4.804000000     1.436000000    -0.397000000
H    -5.226000000     1.086000000     0.388000000
H    -5.528000000     1.760000000    -0.933000000
O     4.359000000     1.434000000    -4.368000000
H     4.698000000     0.732000000    -4.923000000
H     3.409000000     1.316000000    -4.386000000
O    -0.832000000    -4.350000000    -3.073000000
H    -1.511000000    -5.024000000    -3.090000000
H    -0.183000000    -4.679000000    -2.451000000
O    -2.406000000    -4.923000000    -0.446000000
H    -1.494000000    -4.646000000    -0.534000000
H    -2.530000000    -5.042000000     0.496000000
O    -2.478000000     4.542000000    -4.272000000
H    -2.725000000     5.337000000    -3.800000000
H    -2.793000000     3.828000000    -3.718000000
O     2.889000000     1.298000000     5.597000000
H     2.266000000     0.646000000     5.277000000
H     2.433000000     2.134000000     5.497000000
O     2.117000000     1.747000000     2.093000000
H     1.620000000     1.686000000     1.277000000
H     1.475000000     2.032000000     2.743000000
O    -0.936000000     2.239000000    -4.795000000
H    -1.531000000     2.525000000    -4.102000000
H    -1.505000000     1.825000000    -5.444000000
O    -4.717000000     4.791000000    -1.775000000
H    -4.280000000     4.659000000    -0.934000000
H    -5.543000000     4.316000000    -1.693000000
O     5.125000000     3.597000000     1.162000000
H     4.942000000     3.285000000     2.048000000
H     4.305000000     3.462000000     0.687000000
O    -0.919000000     6.362000000    -1.865000000
H    -0.222000000     5.810000000    -1.510000000
H    -0.774000000     6.353000000    -2.811000000
O    -0.121000000     0.125000000     6.508000000
H     0.055000000     1.057000000     6.636000000
H    -0.029000000    -0.009000000     5.565000000
O    -3.950000000    -0.650000000     6.271000000
H    -4.385000000    -1.461000000     6.536000000
H    -3.024000000    -0.802000000     6.462000000
O    -3.619000000     4.165000000     1.129000000
H    -4.291000000     4.550000000     1.691000000
H    -3.426000000     3.317000000     1.530000000
O    -1.855000000    -1.928000000    -3.787000000
H    -1.445000000    -1.237000000    -3.267000000
H    -1.475000000    -2.739000000    -3.450000000
O     4.740000000     5.026000000    -2.550000000
H     4.186000000     5.291000000    -3.284000000
H     4.361000000     5.469000000    -1.791000000
O    -3.054000000     2.206000000     3.188000000
H    -3.878000000     1.783000000     3.430000000
H    -2.774000000     2.658000000     3.984000000
O     2.516000000     4.681000000    -6.062000000
H     2.710000000     5.522000000    -5.647000000
H     2.082000000     4.171000000    -5.378000000
O     1.143000000     4.728000000    -1.153000000
H     1.522000000     3.965000000    -0.717000000
H     0.914000000     4.415000000    -2.029000000
O    -3.478000000    -3.378000000     3.964000000
H    -3.179000000    -4.121000000     3.440000000
H    -2.853000000    -2.680000000     3.769000000
O     3.139000000     2.555000000    -0.888000000
H     3.543000000     2.635000000    -1.752000000
H     3.055000000     1.611000000    -0.749000000
O     0.837000000    -1.541000000    -5.883000000
H    -0.120000000    -1.542000000    -5.882000000
H     1.078000000    -2.395000000    -5.524000000
O     0.849000000     4.919000000    -3.956000000
H     0.041000000     4.544000000    -4.307000000
H     0.911000000     5.781000000    -4.366000000
O     2.354000000    -3.920000000     2.263000000
H     1.448000000    -3.787000000     1.986000000
H     2.853000000    -3.943000000     1.447000000
