158
-3012.04633
C     1.408000000     0.446000000     0.333000000
H     2.484000000     0.598000000     0.330000000
C     0.812000000     0.404000000    -0.928000000
H     1.505000000     0.569000000    -1.749000000
C    -0.532000000     0.051000000    -1.085000000
H    -0.896000000     0.114000000    -2.093000000
C    -1.359000000    -0.228000000     0.000000000
H    -2.414000000    -0.443000000    -0.150000000
C    -0.752000000    -0.202000000     1.297000000
H    -1.387000000    -0.505000000     2.125000000
C     0.602000000     0.125000000     1.418000000
C     1.326000000    -0.229000000     2.763000000
O     0.782000000    -1.072000000     3.476000000
O     2.434000000     0.199000000     3.167000000
O     0.497000000     2.903000000     3.987000000
H     1.206000000     2.358000000     3.648000000
H     0.241000000     2.481000000     4.807000000
O     4.372000000     0.860000000    -4.186000000
H     3.730000000     1.561000000    -4.081000000
H     5.012000000     1.212000000    -4.806000000
O    -4.716000000     2.689000000    -4.459000000
H    -4.542000000     3.212000000    -5.241000000
H    -4.481000000     3.262000000    -3.730000000
O    -2.034000000     0.130000000    -6.693000000
H    -2.474000000    -0.379000000    -7.374000000
H    -1.133000000    -0.194000000    -6.697000000
O     5.404000000    -0.433000000     3.483000000
H     4.484000000    -0.300000000     3.257000000
H     5.458000000    -0.207000000     4.412000000
O     1.582000000    -5.932000000     4.657000000
H     1.300000000    -5.080000000     4.326000000
H     2.448000000    -5.770000000     5.031000000
O     3.006000000     5.312000000    -0.619000000
H     3.672000000     5.222000000    -1.301000000
H     2.205000000     4.977000000    -1.020000000
O    -3.455000000     3.732000000    -2.424000000
H    -2.729000000     4.197000000    -2.008000000
H    -4.024000000     3.478000000    -1.698000000
O     3.231000000    -3.931000000    -1.411000000
H     3.984000000    -3.344000000    -1.349000000
H     3.148000000    -4.117000000    -2.346000000
O     6.585000000    -3.046000000     2.985000000
H     6.823000000    -2.314000000     2.417000000
H     5.765000000    -2.774000000     3.397000000
O     0.848000000    -0.377000000    -6.667000000
H     1.178000000     0.044000000    -7.461000000
H     1.593000000    -0.880000000    -6.337000000
O    -0.399000000     1.896000000     6.833000000
H    -1.206000000     2.404000000     6.748000000
H    -0.532000000     1.364000000     7.617000000
O    -4.589000000     1.774000000    -0.545000000
H    -4.512000000     1.222000000     0.234000000
H    -4.910000000     1.183000000    -1.226000000
O     2.660000000     0.694000000     7.797000000
H     1.858000000     0.868000000     8.290000000
H     3.264000000     1.384000000     8.073000000
O     2.365000000     2.529000000    -4.753000000
H     2.403000000     3.232000000    -5.401000000
H     1.681000000     1.943000000    -5.075000000
O    -5.228000000    -0.491000000    -2.317000000
H    -5.513000000    -1.316000000    -2.711000000
H    -4.491000000    -0.209000000    -2.857000000
O     7.196000000     1.897000000    -0.270000000
H     8.096000000     1.982000000    -0.586000000
H     6.748000000     1.397000000    -0.952000000
O    -0.912000000    -2.541000000     7.433000000
H    -1.046000000    -1.741000000     6.924000000
H    -1.485000000    -3.187000000     7.020000000
O     3.438000000    -3.297000000     5.073000000
H     3.083000000    -2.411000000     5.140000000
H     3.807000000    -3.474000000     5.938000000
O    -4.777000000    -0.039000000     1.690000000
H    -5.030000000    -0.033000000     2.613000000
H    -4.592000000    -0.958000000     1.497000000
O     5.816000000    -2.676000000    -1.419000000
H     6.454000000    -3.066000000    -2.016000000
H     6.094000000    -1.765000000    -1.333000000
O     5.400000000     3.363000000     4.948000000
H     6.023000000     3.423000000     4.224000000
H     5.141000000     2.442000000     4.965000000
O    -1.905000000    -4.102000000    -0.041000000
H    -0.987000000    -3.887000000    -0.210000000
H    -1.875000000    -4.944000000     0.413000000
O    -0.989000000    -0.592000000     5.444000000
H    -0.546000000    -1.041000000     4.724000000
H    -0.355000000     0.057000000     5.749000000
O    -3.652000000     0.565000000     5.567000000
H    -2.751000000     0.715000000     5.280000000
H    -4.033000000     0.016000000     4.882000000
O     5.255000000     3.415000000     1.382000000
H     5.830000000     3.425000000     2.147000000
H     5.751000000     2.941000000     0.715000000
O     2.645000000     2.757000000     2.087000000
H     3.515000000     2.827000000     1.695000000
H     2.645000000     1.902000000     2.518000000
O    -0.322000000    -4.023000000    -3.325000000
H    -1.010000000    -3.398000000    -3.554000000
H    -0.196000000    -3.906000000    -2.384000000
O    -1.015000000     1.964000000    -4.319000000
H    -1.469000000     2.577000000    -3.740000000
H    -1.204000000     1.101000000    -3.950000000
O     3.771000000    -1.846000000    -5.446000000
H     4.592000000    -2.291000000    -5.238000000
H     3.865000000    -0.976000000    -5.058000000
O    -1.913000000     1.989000000     2.932000000
H    -1.874000000     1.503000000     2.109000000
H    -1.052000000     2.399000000     3.009000000
O     2.364000000    -3.392000000     2.181000000
H     1.650000000    -2.759000000     2.110000000
H     2.767000000    -3.205000000     3.029000000
O    -3.445000000    -2.861000000     3.819000000
H    -4.100000000    -2.220000000     4.095000000
H    -3.265000000    -3.374000000     4.607000000
O    -3.892000000     3.469000000     3.550000000
H    -3.119000000     2.944000000     3.342000000
H    -4.398000000     3.485000000     2.738000000
O    -1.433000000     4.972000000    -1.204000000
H    -0.896000000     4.349000000    -0.714000000
H    -0.826000000     5.374000000    -1.826000000
O    -3.680000000    -3.922000000    -2.169000000
H    -3.102000000    -4.019000000    -1.412000000
H    -4.493000000    -3.572000000    -1.806000000
O     6.357000000    -0.116000000    -2.331000000
H     5.553000000     0.069000000    -2.816000000
H     6.959000000    -0.464000000    -2.989000000
O    -4.015000000    -2.592000000     1.297000000
H    -3.226000000    -2.860000000     0.827000000
H    -3.805000000    -2.735000000     2.220000000
O     1.248000000     4.121000000    -2.684000000
H     1.456000000     3.274000000    -3.079000000
H     0.581000000     4.496000000    -3.258000000
O     0.539000000     3.709000000     0.717000000
H     1.170000000     3.406000000     1.370000000
H     0.065000000     2.919000000     0.457000000
O    -0.581000000     2.959000000    -6.903000000
H    -0.702000000     2.580000000    -6.032000000
H    -1.049000000     2.364000000    -7.490000000
O    -6.196000000    -4.075000000     0.795000000
H    -5.730000000    -4.836000000     0.448000000
H    -5.506000000    -3.446000000     1.004000000
O    -0.071000000    -3.797000000     3.878000000
H    -0.968000000    -3.811000000     4.213000000
H    -0.034000000    -3.016000000     3.326000000
O    -3.400000000     0.169000000    -4.214000000
H    -3.637000000     1.090000000    -4.315000000
H    -2.733000000     0.018000000    -4.885000000
O     4.024000000     4.883000000    -3.074000000
H     3.761000000     5.793000000    -3.215000000
H     3.213000000     4.383000000    -3.164000000
O     0.584000000    -3.109000000    -0.767000000
H     0.525000000    -2.189000000    -1.024000000
H     1.470000000    -3.371000000    -1.020000000
O    -2.426000000    -2.278000000    -3.905000000
H    -2.940000000    -1.472000000    -3.948000000
H    -3.022000000    -2.923000000    -3.525000000
O     3.882000000     0.999000000     5.312000000
H     3.210000000     0.837000000     4.649000000
H     3.429000000     0.878000000     6.147000000
