158
-3028.28290
C     1.308000000     0.468000000    -0.519000000
H     2.322000000     0.476000000    -0.911000000
C     0.311000000    -0.060000000    -1.299000000
H     0.523000000    -0.215000000    -2.354000000
C    -0.875000000    -0.408000000    -0.710000000
H    -1.615000000    -0.924000000    -1.273000000
C    -1.117000000    -0.170000000     0.655000000
H    -2.071000000    -0.451000000     1.091000000
C    -0.122000000     0.403000000     1.418000000
H    -0.213000000     0.635000000     2.476000000
C     1.144000000     0.641000000     0.888000000
C     2.227000000     1.165000000     1.756000000
O     2.028000000     1.333000000     2.926000000
O     3.392000000     1.282000000     1.339000000
O    -6.152000000    -3.290000000    -3.304000000
H    -6.323000000    -4.121000000    -2.862000000
H    -6.569000000    -2.632000000    -2.748000000
O    -1.178000000     5.542000000     1.877000000
H    -1.728000000     4.804000000     1.613000000
H    -0.764000000     5.253000000     2.690000000
O    -1.595000000    -1.315000000    -4.306000000
H    -2.132000000    -1.902000000    -3.774000000
H    -2.183000000    -0.595000000    -4.536000000
O    -3.307000000     0.550000000    -5.123000000
H    -3.786000000     0.474000000    -5.949000000
H    -3.362000000     1.479000000    -4.899000000
O    -3.635000000     2.329000000    -2.682000000
H    -3.523000000     2.894000000    -3.447000000
H    -2.779000000     2.334000000    -2.253000000
O    -0.174000000     1.408000000    -6.022000000
H    -1.042000000     1.738000000    -5.793000000
H    -0.207000000     0.476000000    -5.805000000
O     6.854000000     0.125000000     3.139000000
H     6.909000000     0.330000000     4.073000000
H     7.736000000     0.291000000     2.806000000
O     4.877000000    -0.677000000     1.678000000
H     4.428000000     0.147000000     1.489000000
H     5.570000000    -0.436000000     2.294000000
O    -3.552000000    -3.018000000    -3.169000000
H    -3.139000000    -3.839000000    -3.437000000
H    -4.474000000    -3.128000000    -3.398000000
O     5.904000000     5.719000000     1.843000000
H     6.713000000     5.216000000     1.752000000
H     5.271000000     5.255000000     1.296000000
O    -2.647000000    -5.663000000    -4.207000000
H    -2.331000000    -5.410000000    -5.074000000
H    -3.489000000    -6.088000000    -4.374000000
O     0.023000000    -2.000000000    -6.392000000
H    -0.445000000    -1.778000000    -5.587000000
H    -0.665000000    -2.111000000    -7.047000000
O     3.557000000     0.950000000    -6.209000000
H     4.129000000     0.451000000    -5.626000000
H     3.147000000     1.603000000    -5.641000000
O     3.877000000     1.291000000    -3.280000000
H     4.616000000     1.783000000    -2.922000000
H     3.211000000     1.955000000    -3.459000000
O     6.516000000     3.372000000     4.629000000
H     5.845000000     2.691000000     4.610000000
H     6.605000000     3.647000000     3.716000000
O    -6.087000000     2.361000000     1.284000000
H    -5.824000000     1.441000000     1.309000000
H    -6.257000000     2.587000000     2.198000000
O    -7.165000000    -1.232000000    -1.756000000
H    -6.595000000    -0.654000000    -2.265000000
H    -7.940000000    -0.702000000    -1.572000000
O     4.355000000     4.733000000    -0.225000000
H     3.492000000     4.702000000     0.188000000
H     4.197000000     5.129000000    -1.081000000
O    -5.082000000    -0.185000000     1.222000000
H    -5.926000000    -0.459000000     1.580000000
H    -4.781000000    -0.939000000     0.715000000
O     5.905000000    -3.295000000     2.846000000
H     5.706000000    -2.440000000     2.465000000
H     5.227000000    -3.425000000     3.509000000
O     0.722000000     3.743000000     6.235000000
H     0.311000000     4.602000000     6.136000000
H     0.119000000     3.253000000     6.794000000
O    -5.747000000    -0.168000000    -3.761000000
H    -5.757000000    -0.639000000    -4.594000000
H    -4.846000000     0.144000000    -3.674000000
O    -4.065000000     0.103000000     3.944000000
H    -3.961000000     1.043000000     4.092000000
H    -4.647000000     0.043000000     3.187000000
O     3.388000000     2.665000000     6.737000000
H     2.539000000     3.090000000     6.616000000
H     3.542000000     2.198000000     5.916000000
O     1.360000000    -3.783000000     1.433000000
H     1.399000000    -3.741000000     0.478000000
H     2.058000000    -3.198000000     1.727000000
O     0.869000000     3.843000000     3.478000000
H     1.080000000     2.952000000     3.201000000
H     0.815000000     3.791000000     4.432000000
O     1.003000000    -2.957000000    -3.303000000
H     0.059000000    -2.959000000    -3.461000000
H     1.327000000    -2.209000000    -3.804000000
O    -6.316000000     2.018000000    -1.427000000
H    -5.448000000     1.806000000    -1.771000000
H    -6.156000000     2.290000000    -0.524000000
O    -7.142000000    -3.576000000    -0.084000000
H    -7.349000000    -2.789000000    -0.587000000
H    -6.185000000    -3.600000000    -0.059000000
O     4.985000000    -2.589000000    -0.412000000
H     4.974000000    -1.969000000     0.317000000
H     4.060000000    -2.744000000    -0.608000000
O    -2.836000000     3.349000000     1.975000000
H    -3.140000000     3.474000000     2.874000000
H    -3.607000000     3.033000000     1.504000000
O     5.578000000     2.307000000     0.161000000
H     5.249000000     3.185000000    -0.027000000
H     4.790000000     1.779000000     0.294000000
O     2.533000000    -1.132000000    -4.471000000
H     3.187000000    -1.764000000    -4.770000000
H     3.036000000    -0.473000000    -3.994000000
O     3.077000000    -2.426000000     2.727000000
H     3.718000000    -1.853000000     2.307000000
H     2.708000000    -1.897000000     3.434000000
O    -2.973000000     3.248000000     4.889000000
H    -3.199000000     3.103000000     5.808000000
H    -2.295000000     3.924000000     4.913000000
O    -1.177000000     1.237000000     6.776000000
H    -0.929000000     0.834000000     5.944000000
H    -1.925000000     0.722000000     7.078000000
O     7.922000000     1.294000000    -0.514000000
H     7.115000000     1.413000000    -0.013000000
H     8.343000000     0.533000000    -0.114000000
O    -2.995000000    -2.511000000     3.424000000
H    -2.435000000    -2.158000000     2.733000000
H    -3.555000000    -1.777000000     3.677000000
O     1.819000000     4.924000000     0.738000000
H     0.862000000     4.941000000     0.714000000
H     2.031000000     4.603000000     1.614000000
O    -1.223000000     2.671000000    -1.096000000
H    -1.317000000     2.382000000    -0.189000000
H    -0.564000000     2.085000000    -1.468000000
O     1.896000000     2.723000000    -4.504000000
H     1.379000000     3.528000000    -4.556000000
H     1.258000000     2.021000000    -4.627000000
O    -0.927000000    -1.288000000     4.801000000
H    -0.400000000    -2.037000000     4.521000000
H    -1.832000000    -1.573000000     4.675000000
O     2.113000000    -0.857000000     4.706000000
H     1.873000000    -0.536000000     5.576000000
H     1.804000000    -0.177000000     4.107000000
O    -4.544000000    -2.843000000    -0.209000000
H    -4.129000000    -3.556000000     0.277000000
H    -3.983000000    -2.717000000    -0.974000000
O     0.649000000    -3.507000000     4.376000000
H     0.838000000    -3.886000000     3.518000000
H     1.483000000    -3.132000000     4.662000000
O     2.418000000    -3.971000000    -1.216000000
H     2.048000000    -4.842000000    -1.077000000
H     1.999000000    -3.657000000    -2.018000000
O    -4.121000000    -5.091000000     1.244000000
H    -4.581000000    -5.878000000     0.953000000
H    -3.546000000    -5.395000000     1.946000000
O     4.502000000     1.448000000     4.190000000
H     3.658000000     1.446000000     3.738000000
H     5.116000000     1.084000000     3.553000000
