158
-3011.41204
C     1.301000000     0.007000000    -0.594000000
H     2.243000000    -0.161000000    -1.110000000
C     0.130000000    -0.271000000    -1.235000000
H     0.131000000    -0.531000000    -2.291000000
C    -1.015000000    -0.280000000    -0.542000000
H    -1.966000000    -0.446000000    -1.004000000
C    -1.102000000     0.201000000     0.798000000
H    -2.064000000     0.483000000     1.219000000
C     0.093000000     0.507000000     1.445000000
H    -0.063000000     0.879000000     2.455000000
C     1.323000000     0.329000000     0.795000000
C     2.637000000     0.520000000     1.513000000
O     2.685000000     1.078000000     2.551000000
O     3.658000000     0.114000000     0.960000000
O     5.879000000    -1.185000000     3.770000000
H     5.252000000    -0.954000000     4.455000000
H     5.494000000    -1.950000000     3.342000000
O    -1.985000000    -2.891000000    -5.360000000
H    -1.571000000    -3.609000000    -4.880000000
H    -2.889000000    -2.882000000    -5.045000000
O     4.843000000     5.090000000     3.397000000
H     4.467000000     4.285000000     3.040000000
H     4.482000000     5.786000000     2.849000000
O     0.562000000     3.727000000    -0.060000000
H    -0.283000000     3.617000000     0.376000000
H     1.188000000     3.840000000     0.656000000
O     4.148000000    -1.361000000     5.802000000
H     4.191000000    -1.224000000     6.748000000
H     3.849000000    -2.265000000     5.705000000
O    -2.274000000    -0.099000000    -4.191000000
H    -2.816000000    -0.540000000    -3.536000000
H    -2.400000000    -0.610000000    -4.990000000
O    -0.255000000     4.443000000    -2.519000000
H     0.347000000     4.217000000    -1.811000000
H    -0.574000000     3.600000000    -2.841000000
O    -0.437000000     2.386000000    -4.566000000
H    -0.725000000     1.494000000    -4.376000000
H    -0.659000000     2.519000000    -5.487000000
O     7.579000000    -0.006000000     1.774000000
H     7.158000000     0.724000000     1.321000000
H     6.915000000    -0.322000000     2.387000000
O     7.381000000    -1.534000000    -0.671000000
H     6.565000000    -1.212000000    -1.054000000
H     7.427000000    -1.112000000     0.187000000
O    -4.195000000    -1.049000000    -2.582000000
H    -4.579000000    -1.091000000    -1.706000000
H    -4.291000000    -1.936000000    -2.929000000
O    -2.003000000    -3.327000000    -1.123000000
H    -1.967000000    -2.392000000    -0.922000000
H    -1.428000000    -3.431000000    -1.881000000
O     4.217000000     2.170000000    -4.454000000
H     4.836000000     2.900000000    -4.451000000
H     3.574000000     2.403000000    -5.124000000
O    -4.830000000     4.226000000    -3.959000000
H    -4.349000000     3.501000000    -3.562000000
H    -5.186000000     3.862000000    -4.770000000
O    -4.449000000    -3.333000000    -4.091000000
H    -5.354000000    -3.295000000    -4.400000000
H    -4.236000000    -4.266000000    -4.090000000
O    -2.326000000     0.425000000     4.497000000
H    -3.029000000     0.300000000     5.135000000
H    -1.769000000    -0.346000000     4.601000000
O    -5.234000000     0.137000000    -0.271000000
H    -4.933000000     1.012000000    -0.514000000
H    -4.985000000     0.044000000     0.649000000
O     3.132000000    -4.502000000    -3.298000000
H     3.575000000    -3.794000000    -3.766000000
H     2.307000000    -4.116000000    -3.005000000
O     5.508000000    -4.459000000    -0.439000000
H     4.923000000    -3.756000000    -0.156000000
H     5.828000000    -4.176000000    -1.295000000
O     3.028000000     2.854000000     6.403000000
H     2.449000000     3.224000000     7.070000000
H     2.532000000     2.123000000     6.035000000
O    -5.089000000     0.110000000    -5.456000000
H    -4.747000000     0.015000000    -4.567000000
H    -5.913000000    -0.376000000    -5.448000000
O    -6.490000000     1.247000000    -2.705000000
H    -6.415000000     0.730000000    -1.903000000
H    -5.590000000     1.334000000    -3.019000000
O    -5.479000000    -2.987000000     1.161000000
H    -5.793000000    -3.284000000     2.015000000
H    -4.791000000    -2.354000000     1.366000000
O    -3.528000000     2.482000000    -0.551000000
H    -2.842000000     2.674000000     0.088000000
H    -4.103000000     3.246000000    -0.522000000
O    -4.196000000    -0.621000000     2.491000000
H    -3.855000000    -0.180000000     3.269000000
H    -5.144000000    -0.645000000     2.626000000
O     0.578000000    -3.327000000    -2.933000000
H    -0.146000000    -3.865000000    -3.256000000
H     0.775000000    -2.732000000    -3.656000000
O     2.390000000     3.837000000     2.460000000
H     2.537000000     2.895000000     2.536000000
H     2.277000000     4.136000000     3.362000000
O     1.533000000    -1.131000000    -5.320000000
H     1.530000000    -1.909000000    -5.878000000
H     0.763000000    -0.635000000    -5.598000000
O    -0.388000000    -1.622000000     6.317000000
H    -0.745000000    -2.281000000     5.721000000
H     0.438000000    -1.998000000     6.622000000
O    -3.752000000     1.915000000    -3.141000000
H    -3.150000000     1.207000000    -3.369000000
H    -3.440000000     2.233000000    -2.294000000
O    -4.256000000    -5.997000000    -3.173000000
H    -3.824000000    -6.851000000    -3.201000000
H    -4.037000000    -5.646000000    -2.310000000
O     4.857000000    -2.377000000    -4.449000000
H     4.553000000    -1.512000000    -4.175000000
H     4.556000000    -2.460000000    -5.354000000
O    -2.120000000     3.549000000     1.657000000
H    -1.711000000     3.638000000     2.518000000
H    -2.997000000     3.915000000     1.769000000
O     4.756000000    -0.092000000    -1.380000000
H     4.286000000     0.178000000    -0.591000000
H     4.096000000    -0.065000000    -2.073000000
O     3.400000000    -0.141000000    -3.629000000
H     3.667000000     0.617000000    -4.149000000
H     2.581000000    -0.430000000    -4.030000000
O     3.952000000    -2.481000000     0.612000000
H     3.937000000    -1.525000000     0.650000000
H     3.372000000    -2.759000000     1.320000000
O    -1.614000000     2.972000000     4.337000000
H    -0.688000000     3.044000000     4.567000000
H    -1.787000000     2.030000000     4.332000000
O     1.852000000     0.624000000     5.012000000
H     2.145000000     0.732000000     4.108000000
H     2.181000000    -0.238000000     5.269000000
O     4.996000000     2.738000000    -1.638000000
H     4.876000000     1.859000000    -1.277000000
H     4.787000000     2.646000000    -2.567000000
O    -2.883000000    -6.325000000     1.707000000
H    -3.155000000    -5.659000000     1.076000000
H    -2.904000000    -5.876000000     2.552000000
O    -4.119000000    -4.869000000    -0.344000000
H    -4.639000000    -4.334000000     0.255000000
H    -3.488000000    -4.259000000    -0.726000000
O     3.981000000     4.795000000    -0.493000000
H     3.436000000     4.465000000     0.220000000
H     4.345000000     4.008000000    -0.900000000
O    -1.006000000    -3.853000000     4.521000000
H    -0.547000000    -4.629000000     4.200000000
H    -1.191000000    -3.341000000     3.734000000
O     5.025000000     1.668000000     4.317000000
H     4.198000000     1.386000000     3.925000000
H     4.881000000     1.592000000     5.260000000
O    -1.539000000    -2.367000000     2.388000000
H    -2.451000000    -2.080000000     2.344000000
H    -1.184000000    -2.174000000     1.520000000
O     1.280000000    -3.647000000    -0.241000000
H     1.014000000    -3.162000000    -1.022000000
H     2.028000000    -3.157000000     0.102000000
O    -1.315000000    -5.072000000    -3.609000000
H    -1.016000000    -5.742000000    -2.994000000
H    -1.860000000    -5.549000000    -4.236000000
O     5.492000000     2.052000000     1.624000000
H     4.774000000     1.452000000     1.419000000
H     5.420000000     2.199000000     2.567000000
