158
-3033.22884
C     0.956000000    -0.146000000    -1.126000000
H     1.508000000    -0.115000000    -2.062000000
C    -0.455000000    -0.410000000    -1.142000000
H    -0.943000000    -0.553000000    -2.103000000
C    -1.203000000    -0.270000000     0.009000000
H    -2.268000000    -0.390000000    -0.012000000
C    -0.594000000     0.144000000     1.162000000
H    -1.241000000     0.285000000     2.024000000
C     0.750000000     0.319000000     1.186000000
H     1.290000000     0.577000000     2.094000000
C     1.596000000     0.171000000     0.068000000
C     3.055000000     0.505000000     0.173000000
O     3.408000000     1.238000000     1.064000000
O     3.666000000     0.432000000    -0.852000000
O     6.692000000     0.140000000     0.455000000
H     6.120000000     0.710000000    -0.058000000
H     7.415000000     0.707000000     0.724000000
O     4.329000000     5.351000000     1.198000000
H     3.606000000     5.967000000     1.083000000
H     3.972000000     4.508000000     0.918000000
O     0.096000000     3.027000000    -0.511000000
H    -0.716000000     3.522000000    -0.396000000
H    -0.123000000     2.139000000    -0.230000000
O     0.620000000     0.093000000     5.293000000
H     1.462000000     0.536000000     5.185000000
H     0.848000000    -0.778000000     5.617000000
O    -2.473000000    -1.489000000    -5.967000000
H    -3.335000000    -1.766000000    -6.277000000
H    -1.899000000    -1.597000000    -6.725000000
O    -1.164000000     3.340000000    -3.129000000
H    -0.759000000     2.891000000    -2.387000000
H    -2.104000000     3.288000000    -2.956000000
O    -1.410000000     1.059000000    -6.231000000
H    -0.663000000     0.578000000    -5.873000000
H    -2.118000000     0.416000000    -6.257000000
O     6.709000000    -1.159000000    -2.065000000
H     6.682000000    -0.939000000    -1.134000000
H     6.116000000    -1.905000000    -2.152000000
O     7.734000000     0.529000000    -4.068000000
H     7.750000000     1.455000000    -3.825000000
H     7.508000000     0.073000000    -3.257000000
O     1.182000000    -2.547000000     4.744000000
H     1.066000000    -2.356000000     3.813000000
H     0.329000000    -2.876000000     5.028000000
O     6.201000000     4.279000000     2.984000000
H     6.779000000     5.012000000     3.196000000
H     5.483000000     4.675000000     2.490000000
O    -2.098000000    -3.139000000    -2.496000000
H    -2.192000000    -2.186000000    -2.512000000
H    -1.154000000    -3.285000000    -2.425000000
O    -6.554000000     1.531000000    -0.511000000
H    -6.510000000     2.473000000    -0.351000000
H    -7.125000000     1.197000000     0.181000000
O    -4.603000000    -0.848000000     2.326000000
H    -4.469000000    -1.595000000     1.742000000
H    -4.821000000    -1.241000000     3.171000000
O    -5.545000000    -0.839000000    -1.796000000
H    -4.783000000    -0.733000000    -2.366000000
H    -5.617000000    -0.003000000    -1.335000000
O     5.385000000    -3.546000000    -2.291000000
H     4.721000000    -3.437000000    -1.611000000
H     5.063000000    -4.272000000    -2.826000000
O     6.003000000    -1.725000000     2.403000000
H     6.309000000    -0.968000000     1.903000000
H     6.083000000    -1.456000000     3.318000000
O     1.132000000     3.269000000     3.971000000
H     0.902000000     4.079000000     3.515000000
H     1.071000000     3.492000000     4.900000000
O     6.043000000     2.257000000     4.872000000
H     5.236000000     2.169000000     4.364000000
H     6.568000000     2.889000000     4.380000000
O     4.649000000    -3.502000000     0.776000000
H     5.206000000    -4.280000000     0.821000000
H     4.955000000    -2.947000000     1.493000000
O    -6.497000000    -4.522000000    -1.947000000
H    -6.691000000    -3.788000000    -1.364000000
H    -6.565000000    -5.296000000    -1.389000000
O    -4.133000000     3.591000000    -2.344000000
H    -3.830000000     3.429000000    -1.451000000
H    -4.605000000     2.794000000    -2.585000000
O     1.400000000     5.837000000     1.839000000
H     1.789000000     5.028000000     1.508000000
H     1.916000000     6.051000000     2.616000000
O    -6.630000000     1.698000000     2.791000000
H    -7.457000000     1.717000000     2.309000000
H    -6.104000000     1.040000000     2.337000000
O    -5.082000000    -2.600000000     0.173000000
H    -5.256000000    -2.006000000    -0.557000000
H    -5.944000000    -2.774000000     0.551000000
O     0.591000000    -2.891000000    -5.096000000
H     0.386000000    -2.886000000    -6.031000000
H     0.877000000    -1.996000000    -4.909000000
O     2.255000000     3.584000000     0.880000000
H     2.628000000     2.706000000     0.960000000
H     1.426000000     3.451000000     0.420000000
O     3.126000000     0.423000000     5.503000000
H     3.583000000     0.918000000     4.823000000
H     3.729000000    -0.284000000     5.731000000
O     3.088000000     5.828000000     3.916000000
H     2.822000000     5.979000000     4.822000000
H     3.697000000     5.091000000     3.964000000
O    -1.427000000     1.145000000     6.613000000
H    -1.945000000     1.665000000     5.999000000
H    -0.594000000     1.002000000     6.163000000
O    -3.618000000    -0.380000000    -3.600000000
H    -3.107000000    -0.879000000    -4.237000000
H    -4.087000000     0.269000000    -4.124000000
O    -3.710000000    -3.158000000     4.245000000
H    -4.313000000    -2.631000000     4.770000000
H    -2.994000000    -3.370000000     4.843000000
O    -2.759000000     3.422000000    -0.054000000
H    -2.878000000     2.814000000     0.675000000
H    -3.052000000     4.267000000     0.288000000
O     4.133000000    -0.600000000    -3.143000000
H     3.837000000    -0.300000000    -2.283000000
H     4.944000000    -0.116000000    -3.299000000
O     2.175000000    -0.754000000    -5.123000000
H     2.671000000    -0.565000000    -4.326000000
H     2.269000000     0.036000000    -5.656000000
O     2.535000000    -2.781000000    -0.876000000
H     2.785000000    -1.858000000    -0.848000000
H     2.963000000    -3.169000000    -0.112000000
O    -3.600000000     1.695000000     2.039000000
H    -2.995000000     1.689000000     2.780000000
H    -4.136000000     0.911000000     2.161000000
O    -4.664000000     3.426000000     4.183000000
H    -4.245000000     3.047000000     3.410000000
H    -5.597000000     3.433000000     3.969000000
O    -1.685000000     1.966000000     3.977000000
H    -1.270000000     1.140000000     4.224000000
H    -0.954000000     2.569000000     3.838000000
O     3.634000000     2.700000000    -2.479000000
H     3.637000000     1.825000000    -2.092000000
H     4.207000000     2.626000000    -3.242000000
O     1.624000000     5.065000000    -2.375000000
H     0.984000000     4.913000000    -1.679000000
H     2.091000000     4.234000000    -2.456000000
O     0.523000000    -3.442000000     1.838000000
H    -0.382000000    -3.755000000     1.841000000
H     0.586000000    -2.898000000     1.052000000
O     3.770000000     2.203000000     3.620000000
H     3.916000000     1.822000000     2.754000000
H     2.884000000     2.563000000     3.576000000
O    -3.359000000    -4.584000000    -0.534000000
H    -4.029000000    -3.922000000    -0.363000000
H    -2.718000000    -4.138000000    -1.087000000
O     0.666000000    -3.731000000    -2.555000000
H     0.813000000    -3.471000000    -3.465000000
H     1.421000000    -3.381000000    -2.081000000
O    -2.088000000    -4.069000000     2.133000000
H    -2.625000000    -3.659000000     2.811000000
H    -2.642000000    -4.062000000     1.352000000
O    -3.452000000    -4.908000000    -4.576000000
H    -2.644000000    -5.421000000    -4.563000000
H    -3.250000000    -4.129000000    -4.059000000
O     4.917000000     3.059000000    -0.184000000
H     4.452000000     2.964000000    -1.015000000
H     4.634000000     2.307000000     0.336000000
