158
-3038.45983
C     1.194000000    -0.276000000    -0.829000000
H     2.028000000    -0.517000000    -1.483000000
C    -0.001000000    -0.968000000    -0.940000000
H    -0.140000000    -1.758000000    -1.673000000
C    -1.049000000    -0.683000000    -0.061000000
H    -2.039000000    -1.162000000    -0.203000000
C    -0.847000000     0.323000000     0.818000000
H    -1.684000000     0.671000000     1.418000000
C     0.356000000     1.027000000     1.017000000
H     0.332000000     1.965000000     1.566000000
C     1.444000000     0.680000000     0.190000000
C     2.788000000     1.375000000     0.371000000
O     2.901000000     2.300000000     1.216000000
O     3.655000000     1.239000000    -0.495000000
O     6.337000000     1.798000000     1.365000000
H     5.486000000     1.517000000     1.029000000
H     6.952000000     1.598000000     0.659000000
O     6.829000000     4.802000000     0.928000000
H     6.851000000     3.904000000     1.261000000
H     5.903000000     4.971000000     0.756000000
O     1.846000000    -4.067000000    -1.592000000
H     2.096000000    -3.294000000    -1.085000000
H     2.515000000    -4.132000000    -2.274000000
O    -0.967000000     2.991000000    -1.419000000
H    -1.921000000     2.936000000    -1.365000000
H    -0.657000000     2.589000000    -0.607000000
O     5.536000000     4.013000000     5.843000000
H     5.631000000     3.203000000     6.343000000
H     4.939000000     3.786000000     5.131000000
O     0.756000000     1.944000000     4.349000000
H     1.473000000     1.932000000     4.983000000
H     0.534000000     1.021000000     4.221000000
O    -1.938000000     0.500000000    -3.341000000
H    -1.252000000     0.882000000    -3.890000000
H    -1.464000000     0.088000000    -2.618000000
O    -4.438000000    -4.798000000     3.352000000
H    -4.355000000    -5.705000000     3.060000000
H    -5.117000000    -4.426000000     2.789000000
O    -4.028000000    -1.372000000     2.115000000
H    -4.442000000    -2.232000000     2.193000000
H    -4.307000000    -0.899000000     2.899000000
O     6.617000000    -2.102000000    -2.390000000
H     7.426000000    -1.963000000    -2.882000000
H     6.410000000    -1.244000000    -2.020000000
O     0.679000000    -6.512000000    -0.506000000
H     1.287000000    -5.812000000    -0.744000000
H    -0.012000000    -6.071000000    -0.011000000
O     0.426000000    -1.030000000     3.842000000
H     0.822000000    -1.186000000     2.985000000
H    -0.311000000    -1.638000000     3.880000000
O     2.751000000     0.375000000    -4.748000000
H     2.566000000     0.995000000    -5.454000000
H     3.661000000     0.552000000    -4.507000000
O    -5.224000000     0.468000000     3.822000000
H    -6.150000000     0.234000000     3.771000000
H    -5.223000000     1.419000000     3.934000000
O    -3.250000000    -3.719000000    -3.557000000
H    -3.610000000    -2.851000000    -3.374000000
H    -2.325000000    -3.560000000    -3.744000000
O    -2.242000000     5.508000000     0.587000000
H    -2.050000000     5.136000000     1.448000000
H    -1.594000000     6.205000000     0.478000000
O     5.349000000     0.133000000    -4.305000000
H     5.492000000    -0.444000000    -3.555000000
H     5.696000000    -0.354000000    -5.052000000
O     4.364000000     6.952000000    -0.193000000
H     4.509000000     6.006000000    -0.179000000
H     4.716000000     7.236000000    -1.036000000
O    -4.420000000     0.615000000     0.104000000
H    -4.545000000     0.367000000    -0.812000000
H    -4.197000000    -0.204000000     0.546000000
O     2.035000000     4.953000000    -3.666000000
H     2.366000000     5.607000000    -3.052000000
H     2.624000000     4.205000000    -3.561000000
O    -6.762000000    -1.925000000    -1.853000000
H    -6.138000000    -1.455000000    -2.407000000
H    -7.421000000    -1.269000000    -1.626000000
O     6.059000000     0.188000000     4.584000000
H     5.756000000     1.090000000     4.479000000
H     5.815000000    -0.243000000     3.764000000
O    -3.880000000     2.425000000    -3.980000000
H    -4.428000000     2.466000000    -3.196000000
H    -3.238000000     1.741000000    -3.788000000
O     0.244000000     7.213000000     2.384000000
H     0.563000000     6.322000000     2.526000000
H    -0.099000000     7.484000000     3.235000000
O    -6.736000000     1.711000000     1.088000000
H    -5.911000000     1.334000000     0.783000000
H    -6.798000000     2.551000000     0.633000000
O    -5.835000000    -3.399000000     1.352000000
H    -6.533000000    -2.799000000     1.088000000
H    -5.510000000    -3.764000000     0.529000000
O     2.016000000     4.909000000     1.371000000
H     2.408000000     4.038000000     1.435000000
H     1.268000000     4.792000000     0.786000000
O     1.473000000     7.182000000    -0.167000000
H     2.325000000     6.835000000     0.098000000
H     1.074000000     7.486000000     0.648000000
O     3.228000000     6.020000000     3.401000000
H     2.818000000     5.510000000     4.100000000
H     2.836000000     5.681000000     2.596000000
O    -4.371000000    -0.905000000    -3.069000000
H    -4.639000000    -0.548000000    -3.916000000
H    -3.426000000    -0.757000000    -3.035000000
O     8.276000000     1.691000000    -0.760000000
H     8.144000000     2.308000000    -1.480000000
H     9.150000000     1.896000000    -0.427000000
O    -1.718000000    -2.910000000     2.197000000
H    -2.396000000    -2.234000000     2.179000000
H    -1.773000000    -3.282000000     3.077000000
O    -4.022000000     3.445000000    -1.141000000
H    -3.682000000     2.913000000    -0.421000000
H    -4.560000000     4.111000000    -0.713000000
O     5.888000000     0.084000000    -1.315000000
H     5.030000000     0.432000000    -1.072000000
H     6.462000000     0.850000000    -1.332000000
O     1.195000000    -2.063000000    -4.163000000
H     1.377000000    -2.552000000    -3.360000000
H     1.782000000    -1.307000000    -4.120000000
O     3.786000000    -2.333000000    -0.584000000
H     4.556000000    -1.951000000    -1.007000000
H     4.144000000    -2.975000000     0.029000000
O    -3.432000000     2.869000000     1.571000000
H    -2.515000000     2.910000000     1.841000000
H    -3.578000000     1.946000000     1.362000000
O    -1.074000000     3.785000000     3.064000000
H    -1.179000000     4.388000000     3.800000000
H    -0.448000000     3.132000000     3.378000000
O     3.825000000     3.113000000    -2.618000000
H     4.007000000     2.367000000    -2.047000000
H     4.515000000     3.082000000    -3.281000000
O    -3.428000000    -6.712000000    -1.229000000
H    -2.962000000    -6.362000000    -1.988000000
H    -4.302000000    -6.326000000    -1.286000000
O     0.368000000     1.776000000    -3.561000000
H     0.276000000     2.049000000    -2.648000000
H     1.263000000     1.444000000    -3.624000000
O     1.061000000    -2.541000000     1.728000000
H     0.120000000    -2.671000000     1.614000000
H     1.319000000    -1.996000000     0.985000000
O     4.557000000     2.317000000     3.742000000
H     3.877000000     1.750000000     4.105000000
H     4.305000000     2.440000000     2.827000000
O    -5.200000000    -4.229000000    -1.236000000
H    -4.836000000    -4.279000000    -2.120000000
H    -5.777000000    -3.465000000    -1.258000000
O    -8.235000000    -0.356000000     1.282000000
H    -8.216000000    -0.670000000     2.186000000
H    -7.574000000     0.336000000     1.256000000
O    -0.718000000    -3.879000000    -4.979000000
H     0.009000000    -3.262000000    -4.898000000
H    -0.320000000    -4.738000000    -4.843000000
O    -1.439000000    -5.152000000     0.408000000
H    -1.578000000    -4.343000000     0.901000000
H    -2.172000000    -5.187000000    -0.207000000
O     4.378000000     4.109000000    -0.126000000
H     4.127000000     3.977000000    -1.040000000
H     3.786000000     3.544000000     0.370000000
