158
-3035.26786
C     1.053000000    -1.030000000    -0.032000000
H     1.649000000    -1.939000000    -0.030000000
C    -0.304000000    -1.233000000     0.305000000
H    -0.636000000    -2.254000000     0.472000000
C    -1.169000000    -0.153000000     0.352000000
H    -2.190000000    -0.308000000     0.634000000
C    -0.695000000     1.127000000     0.156000000
H    -1.392000000     1.958000000     0.232000000
C     0.629000000     1.321000000    -0.229000000
H     0.875000000     2.360000000    -0.435000000
C     1.550000000     0.228000000    -0.397000000
C     2.937000000     0.431000000    -0.962000000
O     3.431000000     1.568000000    -0.963000000
O     3.541000000    -0.521000000    -1.495000000
O     6.262000000     1.750000000    -1.873000000
H     5.370000000     1.585000000    -2.181000000
H     6.220000000     1.601000000    -0.928000000
O     0.989000000    -1.520000000    -5.325000000
H     1.180000000    -0.597000000    -5.157000000
H     0.111000000    -1.651000000    -4.967000000
O    -4.935000000    -1.120000000    -3.346000000
H    -4.891000000    -2.072000000    -3.440000000
H    -5.586000000    -0.977000000    -2.659000000
O     0.604000000     4.816000000    -4.247000000
H     0.839000000     4.415000000    -3.410000000
H     0.206000000     4.105000000    -4.750000000
O     0.362000000    -5.292000000    -0.280000000
H     1.153000000    -4.981000000    -0.720000000
H     0.679000000    -5.677000000     0.537000000
O    -2.658000000    -3.572000000     2.464000000
H    -3.031000000    -3.089000000     1.727000000
H    -3.405000000    -3.751000000     3.036000000
O    -1.943000000    -6.643000000     0.534000000
H    -1.091000000    -6.221000000     0.422000000
H    -2.023000000    -6.773000000     1.479000000
O    -4.713000000    -1.589000000     1.797000000
H    -4.694000000    -1.098000000     2.619000000
H    -4.802000000    -0.918000000     1.120000000
O     5.640000000    -0.812000000    -3.444000000
H     4.888000000    -0.591000000    -2.894000000
H     6.391000000    -0.763000000    -2.853000000
O    -2.290000000     1.122000000     5.304000000
H    -1.955000000     0.298000000     4.951000000
H    -2.768000000     0.869000000     6.093000000
O     6.637000000     1.003000000    -5.473000000
H     6.298000000     0.574000000    -4.688000000
H     6.431000000     1.930000000    -5.348000000
O     8.292000000    -1.459000000    -0.154000000
H     7.350000000    -1.421000000     0.009000000
H     8.505000000    -2.392000000    -0.112000000
O     2.604000000    -4.203000000    -1.091000000
H     2.627000000    -3.457000000    -1.690000000
H     3.522000000    -4.450000000    -0.980000000
O     4.540000000     5.197000000     2.576000000
H     4.115000000     4.373000000     2.337000000
H     4.514000000     5.211000000     3.533000000
O    -1.225000000    -0.259000000    -2.808000000
H    -1.039000000    -0.808000000    -2.046000000
H    -1.200000000     0.636000000    -2.470000000
O    -0.840000000    -5.743000000     3.432000000
H    -0.262000000    -5.275000000     4.034000000
H    -1.509000000    -5.101000000     3.194000000
O     6.269000000     1.640000000     0.853000000
H     5.640000000     1.102000000     1.333000000
H     5.850000000     2.498000000     0.787000000
O     3.758000000     1.918000000    -4.110000000
H     3.262000000     1.797000000    -3.300000000
H     3.237000000     1.473000000    -4.778000000
O    -1.745000000     2.674000000    -2.513000000
H    -2.074000000     3.558000000    -2.347000000
H    -2.387000000     2.098000000    -2.098000000
O    -6.781000000     2.004000000    -0.504000000
H    -7.432000000     2.668000000    -0.277000000
H    -6.057000000     2.161000000     0.102000000
O    -6.580000000    -0.747000000    -1.059000000
H    -7.390000000    -1.112000000    -1.415000000
H    -6.764000000     0.187000000    -0.956000000
O     5.503000000    -3.429000000    -4.640000000
H     5.262000000    -3.172000000    -5.530000000
H     5.692000000    -2.603000000    -4.195000000
O     3.615000000    -5.305000000    -4.251000000
H     3.629000000    -4.431000000    -3.860000000
H     4.238000000    -5.253000000    -4.976000000
O    -1.828000000    -1.280000000     4.055000000
H    -0.876000000    -1.382000000     4.080000000
H    -2.113000000    -1.864000000     3.353000000
O     5.429000000    -1.655000000     0.077000000
H     4.837000000    -1.302000000    -0.587000000
H     5.238000000    -1.145000000     0.864000000
O     3.669000000    -6.001000000     1.328000000
H     3.619000000    -5.107000000     1.666000000
H     2.756000000    -6.276000000     1.241000000
O    -4.377000000     1.924000000     0.680000000
H    -4.561000000     1.671000000     1.585000000
H    -3.906000000     2.754000000     0.754000000
O    -0.405000000    -5.856000000    -2.720000000
H    -1.179000000    -5.295000000    -2.682000000
H    -0.125000000    -5.939000000    -1.808000000
O    -2.464000000     3.928000000     1.431000000
H    -2.231000000     4.120000000     2.339000000
H    -1.648000000     4.041000000     0.945000000
O    -3.338000000     5.165000000    -2.424000000
H    -3.521000000     5.739000000    -3.168000000
H    -4.101000000     4.590000000    -2.371000000
O     2.245000000     0.476000000     3.757000000
H     2.374000000     1.303000000     4.219000000
H     2.340000000    -0.195000000     4.433000000
O    -3.249000000     0.616000000    -4.981000000
H    -3.781000000     0.131000000    -4.351000000
H    -2.382000000     0.662000000    -4.578000000
O    -3.727000000     0.910000000    -1.777000000
H    -4.411000000     0.457000000    -2.271000000
H    -4.081000000     0.985000000    -0.891000000
O     4.594000000     4.602000000    -2.529000000
H     5.541000000     4.486000000    -2.460000000
H     4.252000000     3.717000000    -2.651000000
O    -4.683000000     5.260000000     0.827000000
H    -5.232000000     5.482000000     1.579000000
H    -4.055000000     4.624000000     1.168000000
O    -6.293000000    -4.179000000     0.701000000
H    -6.870000000    -4.309000000     1.454000000
H    -5.681000000    -3.500000000     0.983000000
O    -4.385000000     0.673000000     3.298000000
H    -4.984000000     1.154000000     3.870000000
H    -3.603000000     0.536000000     3.831000000
O     2.193000000     5.053000000    -1.335000000
H     2.418000000     4.517000000    -0.574000000
H     3.037000000     5.281000000    -1.725000000
O    -1.680000000    -3.542000000    -1.775000000
H    -2.438000000    -3.964000000    -1.370000000
H    -0.978000000    -3.642000000    -1.132000000
O     3.008000000    -2.423000000    -3.048000000
H     3.250000000    -1.767000000    -2.395000000
H     2.749000000    -1.912000000    -3.816000000
O     0.031000000     5.200000000     0.468000000
H     0.479000000     4.684000000     1.138000000
H     0.670000000     5.278000000    -0.241000000
O    -0.738000000     2.829000000    -5.198000000
H    -1.385000000     2.799000000    -4.493000000
H    -1.216000000     3.185000000    -5.947000000
O    -3.602000000    -4.632000000    -0.274000000
H    -4.386000000    -4.954000000     0.169000000
H    -2.948000000    -5.316000000    -0.130000000
O     3.447000000     2.964000000     1.140000000
H     2.545000000     2.868000000     1.447000000
H     3.484000000     2.440000000     0.339000000
O     4.671000000    -0.167000000     2.541000000
H     3.791000000     0.171000000     2.706000000
H     5.015000000    -0.374000000     3.410000000
O    -1.804000000    -2.480000000    -4.378000000
H    -1.970000000    -1.580000000    -4.098000000
H    -1.545000000    -2.936000000    -3.577000000
O     3.602000000    -3.406000000     2.096000000
H     4.301000000    -3.292000000     2.740000000
H     3.503000000    -2.543000000     1.695000000
O     0.635000000     2.998000000     2.347000000
H     0.477000000     2.915000000     3.287000000
H     0.397000000     2.143000000     1.987000000
