158
-3045.00443
C     0.670000000    -1.205000000    -0.618000000
H     1.147000000    -2.099000000    -1.012000000
C    -0.535000000    -1.228000000     0.079000000
H    -1.056000000    -2.181000000     0.041000000
C    -1.083000000    -0.094000000     0.575000000
H    -2.038000000     0.003000000     1.107000000
C    -0.433000000     1.130000000     0.389000000
H    -0.916000000     2.022000000     0.779000000
C     0.765000000     1.180000000    -0.305000000
H     1.186000000     2.170000000    -0.455000000
C     1.423000000    -0.011000000    -0.702000000
C     2.768000000     0.087000000    -1.412000000
O     3.178000000     1.171000000    -1.730000000
O     3.489000000    -0.903000000    -1.482000000
O     5.676000000     2.125000000    -2.165000000
H     4.780000000     1.835000000    -1.998000000
H     6.023000000     2.342000000    -1.300000000
O     0.046000000    -1.733000000    -4.750000000
H    -0.034000000    -2.160000000    -5.603000000
H    -0.728000000    -2.021000000    -4.265000000
O    -0.560000000     1.801000000     4.815000000
H     0.178000000     1.731000000     4.210000000
H    -0.158000000     1.994000000     5.662000000
O    -6.405000000     0.523000000    -2.608000000
H    -7.199000000     0.580000000    -3.140000000
H    -6.718000000     0.276000000    -1.738000000
O    -0.279000000    -4.870000000    -1.761000000
H     0.675000000    -4.832000000    -1.684000000
H    -0.600000000    -4.539000000    -0.923000000
O    -1.302000000    -4.628000000     0.907000000
H    -1.913000000    -4.351000000     1.589000000
H    -0.753000000    -5.289000000     1.331000000
O    -2.567000000     0.150000000     5.673000000
H    -2.375000000     0.537000000     6.527000000
H    -1.899000000     0.510000000     5.090000000
O     0.771000000    -1.493000000     6.387000000
H     0.333000000    -1.323000000     5.553000000
H     0.548000000    -2.401000000     6.593000000
O    -2.587000000    -6.378000000    -1.199000000
H    -1.946000000    -6.243000000    -1.896000000
H    -2.137000000    -6.098000000    -0.402000000
O    -2.911000000    -2.299000000     1.835000000
H    -3.261000000    -1.849000000     2.604000000
H    -2.346000000    -1.650000000     1.415000000
O     5.177000000    -0.386000000    -3.449000000
H     4.516000000    -0.486000000    -2.763000000
H     5.654000000     0.408000000    -3.208000000
O     0.450000000    -2.764000000     3.293000000
H     0.323000000    -2.757000000     2.344000000
H    -0.307000000    -3.241000000     3.633000000
O     7.218000000    -2.277000000    -3.192000000
H     6.569000000    -1.615000000    -3.432000000
H     7.937000000    -2.142000000    -3.810000000
O     2.432000000    -4.306000000    -1.497000000
H     2.356000000    -3.680000000    -2.216000000
H     3.313000000    -4.168000000    -1.150000000
O     4.096000000     1.920000000     3.428000000
H     3.303000000     2.026000000     3.954000000
H     3.810000000     1.424000000     2.661000000
O     3.757000000     5.519000000     0.588000000
H     3.695000000     4.642000000     0.209000000
H     3.901000000     5.366000000     1.522000000
O     1.400000000     0.667000000    -4.996000000
H     0.738000000     1.249000000    -5.371000000
H     0.910000000    -0.111000000    -4.728000000
O     2.120000000     2.928000000    -3.721000000
H     2.750000000     2.508000000    -3.136000000
H     1.909000000     2.254000000    -4.368000000
O    -0.909000000     2.707000000    -2.685000000
H    -1.386000000     1.910000000    -2.914000000
H     0.007000000     2.501000000    -2.874000000
O    -4.923000000     1.533000000     3.081000000
H    -5.473000000     1.848000000     3.798000000
H    -4.302000000     2.245000000     2.925000000
O    -4.281000000     0.791000000     0.523000000
H    -4.748000000     0.965000000     1.341000000
H    -3.987000000     1.652000000     0.228000000
O    -6.686000000    -0.632000000     0.228000000
H    -7.067000000    -0.641000000     1.106000000
H    -5.794000000    -0.310000000     0.357000000
O     2.979000000    -4.622000000    -5.612000000
H     2.844000000    -3.920000000    -4.976000000
H     3.922000000    -4.613000000    -5.781000000
O    -1.007000000    -5.314000000     3.539000000
H    -1.823000000    -5.486000000     4.009000000
H    -0.512000000    -6.130000000     3.611000000
O     1.284000000     5.901000000     3.632000000
H     0.632000000     6.288000000     4.216000000
H     0.971000000     5.009000000     3.481000000
O     4.898000000    -3.222000000    -1.393000000
H     5.713000000    -2.960000000    -1.822000000
H     4.378000000    -2.420000000    -1.356000000
O     4.666000000    -5.896000000    -2.911000000
H     5.560000000    -5.554000000    -2.867000000
H     4.110000000    -5.130000000    -2.768000000
O    -3.697000000     3.393000000    -0.725000000
H    -2.767000000     3.611000000    -0.785000000
H    -4.024000000     3.936000000    -0.007000000
O     3.896000000    -1.321000000    -5.747000000
H     4.344000000    -0.669000000    -5.208000000
H     3.264000000    -1.728000000    -5.155000000
O    -1.091000000     5.348000000     1.949000000
H    -1.703000000     4.722000000     2.335000000
H    -0.915000000     5.003000000     1.074000000
O     3.036000000    -1.665000000     3.813000000
H     3.253000000    -2.096000000     4.640000000
H     2.203000000    -2.057000000     3.551000000
O    -3.294000000    -2.810000000     6.189000000
H    -2.941000000    -1.953000000     5.950000000
H    -2.521000000    -3.359000000     6.321000000
O    -3.584000000     1.070000000    -2.691000000
H    -4.388000000     0.552000000    -2.665000000
H    -3.660000000     1.668000000    -1.948000000
O     1.845000000     5.358000000    -4.609000000
H     2.674000000     5.816000000    -4.747000000
H     2.092000000     4.543000000    -4.171000000
O    -5.494000000    -3.473000000     0.924000000
H    -5.415000000    -3.958000000     1.746000000
H    -4.651000000    -3.029000000     0.826000000
O    -4.058000000    -0.865000000     3.752000000
H    -4.258000000    -0.008000000     3.375000000
H    -3.469000000    -0.674000000     4.482000000
O     1.817000000     6.350000000    -1.701000000
H     2.743000000     6.111000000    -1.661000000
H     1.682000000     6.635000000    -2.604000000
O    -5.182000000    -1.822000000    -3.257000000
H    -5.191000000    -2.437000000    -2.524000000
H    -5.810000000    -1.143000000    -3.008000000
O     2.438000000    -2.382000000    -3.743000000
H     2.696000000    -1.750000000    -3.072000000
H     1.541000000    -2.136000000    -3.971000000
O    -2.486000000     3.466000000     3.236000000
H    -2.444000000     4.018000000     4.016000000
H    -1.801000000     2.810000000     3.369000000
O    -0.469000000     4.530000000    -0.664000000
H     0.265000000     5.042000000    -1.006000000
H    -0.547000000     3.791000000    -1.266000000
O    -6.325000000    -3.894000000    -1.579000000
H    -6.078000000    -3.669000000    -0.682000000
H    -7.043000000    -4.520000000    -1.480000000
O     3.835000000     2.946000000     0.243000000
H     4.278000000     2.385000000     0.879000000
H     3.501000000     2.341000000    -0.420000000
O     4.770000000     0.148000000     0.876000000
H     5.179000000    -0.611000000     1.291000000
H     4.360000000    -0.204000000     0.085000000
O    -6.907000000    -1.605000000     4.250000000
H    -5.951000000    -1.628000000     4.283000000
H    -7.110000000    -0.865000000     3.679000000
O    -2.080000000    -1.726000000    -3.281000000
H    -2.289000000    -1.322000000    -2.439000000
H    -2.883000000    -1.638000000    -3.795000000
O     7.454000000     3.813000000    -3.301000000
H     6.672000000     3.361000000    -2.986000000
H     7.263000000     4.742000000    -3.169000000
O     1.342000000     0.760000000     3.225000000
H     0.912000000     0.389000000     2.454000000
H     2.078000000     0.172000000     3.395000000
