158
-3025.84513
C     1.369000000    -0.445000000    -0.328000000
H     2.386000000    -0.774000000    -0.526000000
C     0.424000000    -1.235000000     0.373000000
H     0.708000000    -2.246000000     0.655000000
C    -0.793000000    -0.713000000     0.637000000
H    -1.521000000    -1.330000000     1.220000000
C    -1.090000000     0.586000000     0.258000000
H    -2.002000000     1.021000000     0.659000000
C    -0.259000000     1.358000000    -0.530000000
H    -0.587000000     2.362000000    -0.786000000
C     1.022000000     0.849000000    -0.828000000
C     1.940000000     1.756000000    -1.590000000
O     1.568000000     2.811000000    -2.078000000
O     3.123000000     1.444000000    -1.729000000
O     4.442000000     3.748000000    -0.823000000
H     3.931000000     3.101000000    -1.310000000
H     5.009000000     3.227000000    -0.256000000
O    -0.020000000     3.318000000     3.983000000
H     0.228000000     2.547000000     3.474000000
H     0.014000000     3.025000000     4.894000000
O    -4.744000000     1.028000000    -2.345000000
H    -5.421000000     0.798000000    -2.980000000
H    -4.688000000     0.268000000    -1.767000000
O    -0.542000000    -4.264000000    -1.436000000
H     0.399000000    -4.189000000    -1.599000000
H    -0.950000000    -3.922000000    -2.231000000
O    -2.341000000    -5.044000000     0.592000000
H    -1.666000000    -4.605000000     0.075000000
H    -2.102000000    -4.864000000     1.501000000
O     1.126000000    -1.282000000     3.504000000
H     0.308000000    -1.775000000     3.562000000
H     1.587000000    -1.487000000     4.317000000
O    -4.329000000    -3.157000000     4.611000000
H    -4.020000000    -3.945000000     4.165000000
H    -4.163000000    -2.449000000     3.989000000
O    -4.363000000    -6.768000000     0.195000000
H    -5.131000000    -6.306000000     0.530000000
H    -3.636000000    -6.163000000     0.343000000
O    -4.704000000    -0.978000000    -0.527000000
H    -5.152000000    -1.803000000    -0.339000000
H    -4.862000000    -0.438000000     0.247000000
O     4.703000000     0.692000000    -3.757000000
H     4.018000000     0.850000000    -3.108000000
H     5.416000000     1.276000000    -3.500000000
O    -1.479000000    -2.198000000     3.993000000
H    -1.335000000    -2.143000000     4.938000000
H    -1.216000000    -3.088000000     3.762000000
O     6.413000000    -1.143000000    -2.534000000
H     6.068000000    -0.660000000    -3.284000000
H     7.361000000    -1.019000000    -2.584000000
O     2.077000000    -4.152000000    -1.679000000
H     2.362000000    -3.427000000    -2.235000000
H     2.771000000    -4.241000000    -1.026000000
O     1.481000000    -6.952000000     0.278000000
H     0.926000000    -6.457000000     0.881000000
H     0.943000000    -7.063000000    -0.506000000
O     1.363000000     0.274000000    -5.722000000
H     0.618000000     0.597000000    -5.216000000
H     1.062000000     0.295000000    -6.631000000
O     1.703000000    -4.333000000     2.773000000
H     2.200000000    -4.476000000     3.579000000
H     0.794000000    -4.257000000     3.062000000
O     6.790000000     2.316000000    -0.080000000
H     6.249000000     1.549000000    -0.267000000
H     7.659000000     1.958000000     0.104000000
O     2.527000000     2.803000000    -4.506000000
H     2.275000000     2.908000000    -3.588000000
H     1.941000000     2.122000000    -4.838000000
O     2.331000000     5.783000000    -2.628000000
H     2.097000000     4.864000000    -2.758000000
H     3.277000000     5.812000000    -2.771000000
O     4.797000000     6.427000000    -0.168000000
H     4.665000000     5.569000000    -0.569000000
H     4.573000000     7.052000000    -0.858000000
O    -3.705000000     3.113000000    -3.864000000
H    -3.836000000     2.439000000    -3.198000000
H    -2.785000000     3.360000000    -3.778000000
O    -0.845000000     3.265000000    -3.338000000
H    -0.689000000     2.552000000    -3.958000000
H    -0.030000000     3.333000000    -2.842000000
O    -3.059000000     1.587000000     4.240000000
H    -3.579000000     2.196000000     4.765000000
H    -2.279000000     2.086000000     3.997000000
O    -5.361000000     0.713000000     1.618000000
H    -4.839000000     0.105000000     2.142000000
H    -5.075000000     1.581000000     1.902000000
O     3.384000000    -3.311000000     0.811000000
H     2.865000000    -3.698000000     1.516000000
H     3.151000000    -2.383000000     0.824000000
O    -1.264000000    -4.870000000     3.229000000
H    -2.024000000    -5.198000000     3.710000000
H    -0.526000000    -5.372000000     3.574000000
O     4.839000000     0.169000000    -0.453000000
H     5.204000000    -0.505000000    -1.026000000
H     4.195000000     0.622000000    -0.997000000
O    -4.338000000     3.441000000     2.060000000
H    -3.753000000     3.722000000     2.764000000
H    -5.202000000     3.755000000     2.327000000
O     5.734000000    -3.585000000    -1.597000000
H     5.879000000    -3.975000000    -2.459000000
H     5.936000000    -2.657000000    -1.717000000
O     4.189000000     0.188000000    -6.472000000
H     4.665000000     0.475000000    -5.694000000
H     3.320000000    -0.049000000    -6.148000000
O    -3.365000000    -0.107000000     6.562000000
H    -2.925000000     0.519000000     5.988000000
H    -2.846000000    -0.907000000     6.488000000
O    -2.952000000    -2.337000000    -4.319000000
H    -3.783000000    -2.747000000    -4.080000000
H    -2.742000000    -1.770000000    -3.577000000
O    -5.406000000     3.107000000    -0.506000000
H    -5.137000000     2.299000000    -0.944000000
H    -4.726000000     3.261000000     0.150000000
O    -6.266000000    -2.875000000     0.435000000
H    -6.846000000    -3.235000000    -0.237000000
H    -6.022000000    -3.630000000     0.970000000
O    -3.612000000    -0.739000000     3.275000000
H    -2.768000000    -1.179000000     3.373000000
H    -3.511000000     0.084000000     3.752000000
O     0.379000000     6.382000000    -0.674000000
H     1.102000000     6.330000000    -1.300000000
H     0.529000000     5.652000000    -0.073000000
O     2.957000000    -1.603000000    -4.375000000
H     3.615000000    -0.926000000    -4.216000000
H     2.223000000    -1.134000000    -4.773000000
O    -1.166000000     6.066000000    -3.103000000
H    -0.509000000     6.341000000    -2.463000000
H    -1.163000000     5.110000000    -3.053000000
O    -1.071000000     1.138000000    -5.144000000
H    -1.815000000     0.542000000    -5.061000000
H    -1.288000000     1.689000000    -5.896000000
O     4.706000000     4.468000000    -4.207000000
H     3.942000000     4.165000000    -4.699000000
H     5.196000000     3.670000000    -4.010000000
O     1.465000000     4.199000000     0.566000000
H     2.354000000     4.141000000     0.916000000
H     1.534000000     3.851000000    -0.323000000
O     3.630000000     2.254000000     2.038000000
H     3.897000000     1.759000000     1.263000000
H     2.740000000     1.951000000     2.221000000
O    -0.954000000    -2.097000000     6.637000000
H    -0.594000000    -2.559000000     7.394000000
H    -0.617000000    -1.205000000     6.719000000
O     6.626000000     2.452000000    -2.990000000
H     7.522000000     2.507000000    -3.323000000
H     6.720000000     2.515000000    -2.040000000
O    -2.330000000    -0.837000000    -2.224000000
H    -1.888000000    -0.266000000    -1.596000000
H    -3.170000000    -1.041000000    -1.812000000
O     6.322000000    -3.497000000     1.348000000
H     6.273000000    -2.712000000     1.894000000
H     5.487000000    -3.514000000     0.879000000
O    -3.639000000    -5.401000000    -2.548000000
H    -3.741000000    -5.155000000    -1.629000000
H    -3.446000000    -6.338000000    -2.526000000
O     1.034000000     1.175000000     2.441000000
H     0.603000000     1.157000000     1.586000000
H     0.960000000     0.277000000     2.765000000
