158
-3056.52350
C     1.424000000    -0.475000000    -0.276000000
H     2.342000000    -0.980000000    -0.568000000
C     0.506000000    -1.116000000     0.544000000
H     0.673000000    -2.063000000     1.050000000
C    -0.733000000    -0.565000000     0.790000000
H    -1.392000000    -1.144000000     1.409000000
C    -0.997000000     0.735000000     0.328000000
H    -1.940000000     1.229000000     0.551000000
C    -0.124000000     1.364000000    -0.560000000
H    -0.381000000     2.358000000    -0.915000000
C     1.064000000     0.749000000    -0.900000000
C     1.898000000     1.323000000    -2.006000000
O     1.607000000     2.399000000    -2.555000000
O     2.962000000     0.774000000    -2.288000000
O     3.583000000     2.689000000    -5.355000000
H     3.263000000     1.792000000    -5.458000000
H     2.861000000     3.153000000    -4.931000000
O     0.539000000     0.996000000     4.820000000
H    -0.383000000     1.254000000     4.823000000
H     0.808000000     1.061000000     5.736000000
O    -6.892000000    -2.048000000     1.450000000
H    -7.526000000    -1.341000000     1.570000000
H    -7.344000000    -2.831000000     1.764000000
O    -4.351000000     1.789000000    -3.747000000
H    -4.155000000     1.252000000    -4.515000000
H    -3.627000000     2.414000000    -3.700000000
O     0.614000000    -4.714000000    -1.016000000
H     1.550000000    -4.568000000    -1.155000000
H     0.524000000    -4.807000000    -0.068000000
O     4.232000000     6.706000000    -3.744000000
H     4.211000000     7.432000000    -3.120000000
H     3.918000000     5.952000000    -3.245000000
O    -5.797000000     3.197000000    -1.522000000
H    -5.536000000     3.190000000    -0.601000000
H    -5.072000000     2.772000000    -1.980000000
O     1.456000000    -3.646000000     3.347000000
H     2.236000000    -3.440000000     2.831000000
H     1.609000000    -4.535000000     3.667000000
O    -2.853000000    -3.592000000     2.164000000
H    -3.695000000    -4.048000000     2.167000000
H    -2.929000000    -2.944000000     2.864000000
O     4.831000000    -0.973000000    -2.328000000
H     4.081000000    -0.383000000    -2.407000000
H     5.188000000    -1.026000000    -3.215000000
O    -2.383000000     3.710000000    -3.716000000
H    -2.352000000     4.307000000    -2.968000000
H    -1.643000000     3.972000000    -4.262000000
O     3.287000000    -3.910000000    -1.834000000
H     3.628000000    -3.059000000    -2.110000000
H     3.932000000    -4.234000000    -1.206000000
O    -2.189000000     5.690000000    -1.750000000
H    -2.164000000     5.301000000    -0.875000000
H    -3.092000000     5.989000000    -1.853000000
O     1.096000000     3.214000000    -7.350000000
H     1.380000000     4.122000000    -7.457000000
H     0.573000000     3.219000000    -6.548000000
O     3.628000000     4.392000000    -2.673000000
H     4.446000000     3.956000000    -2.911000000
H     2.974000000     3.693000000    -2.679000000
O     2.469000000     0.217000000    -4.920000000
H     2.604000000     0.497000000    -4.014000000
H     1.548000000    -0.042000000    -4.956000000
O     1.261000000     4.735000000    -0.377000000
H     1.520000000     4.318000000    -1.199000000
H     0.992000000     5.618000000    -0.631000000
O     4.194000000     5.512000000     0.029000000
H     3.624000000     6.091000000     0.535000000
H     3.596000000     5.015000000    -0.528000000
O    -0.584000000     3.855000000     3.508000000
H    -0.202000000     4.251000000     4.291000000
H     0.148000000     3.781000000     2.895000000
O    -5.242000000    -1.784000000    -0.958000000
H    -5.477000000    -2.386000000    -0.252000000
H    -4.513000000    -1.274000000    -0.605000000
O     0.189000000     2.908000000    -4.815000000
H    -0.239000000     2.056000000    -4.899000000
H     0.589000000     2.891000000    -3.945000000
O    -2.636000000    -1.080000000     4.464000000
H    -1.816000000    -1.361000000     4.871000000
H    -2.595000000    -0.124000000     4.478000000
O     4.585000000    -5.173000000     0.194000000
H     3.960000000    -5.861000000     0.421000000
H     4.457000000    -4.502000000     0.864000000
O    -4.573000000    -2.548000000     5.503000000
H    -4.091000000    -1.995000000     4.887000000
H    -4.019000000    -2.576000000     6.283000000
O     4.688000000     1.864000000    -0.393000000
H     4.977000000     2.408000000    -1.126000000
H     4.048000000     1.265000000    -0.777000000
O     6.300000000     2.568000000    -5.653000000
H     6.812000000     3.368000000    -5.538000000
H     5.389000000     2.859000000    -5.622000000
O    -4.254000000     3.505000000     1.446000000
H    -4.982000000     3.983000000     1.844000000
H    -4.261000000     2.653000000     1.881000000
O    -5.409000000    -4.753000000    -0.690000000
H    -5.418000000    -5.678000000    -0.938000000
H    -5.957000000    -4.324000000    -1.348000000
O    -4.187000000    -2.613000000    -3.728000000
H    -4.211000000    -1.893000000    -4.358000000
H    -4.735000000    -2.315000000    -3.002000000
O    -2.090000000     1.668000000     4.746000000
H    -1.940000000     2.355000000     4.097000000
H    -2.741000000     2.040000000     5.342000000
O     0.309000000     7.083000000    -2.414000000
H     0.355000000     7.250000000    -3.356000000
H    -0.429000000     6.483000000    -2.312000000
O     2.819000000    -0.871000000    -7.661000000
H     2.932000000    -0.592000000    -6.752000000
H     2.060000000    -1.454000000    -7.640000000
O    -0.885000000    -1.124000000    -2.482000000
H    -1.227000000    -1.822000000    -1.924000000
H    -0.311000000    -0.618000000    -1.907000000
O    -4.722000000     0.023000000     2.109000000
H    -4.308000000    -0.253000000     2.927000000
H    -5.401000000    -0.632000000     1.951000000
O    -5.284000000    -4.885000000     2.071000000
H    -5.600000000    -4.675000000     1.192000000
H    -5.229000000    -5.840000000     2.083000000
O    -0.276000000    -2.432000000     4.950000000
H     0.313000000    -2.272000000     5.687000000
H     0.302000000    -2.695000000     4.233000000
O     4.704000000     2.617000000     2.289000000
H     4.652000000     2.452000000     1.347000000
H     3.920000000     3.128000000     2.487000000
O     3.840000000    -2.835000000     2.135000000
H     4.689000000    -2.618000000     1.750000000
H     3.711000000    -2.177000000     2.818000000
O     1.933000000     4.067000000     2.174000000
H     1.635000000     4.376000000     1.318000000
H     1.849000000     3.115000000     2.127000000
O    -0.430000000     0.269000000    -4.817000000
H    -0.846000000    -0.041000000    -4.013000000
H    -1.122000000     0.222000000    -5.477000000
O    -2.075000000     4.964000000     0.909000000
H    -2.828000000     4.376000000     0.970000000
H    -1.507000000     4.702000000     1.633000000
O     6.148000000     2.868000000    -2.649000000
H     6.541000000     2.435000000    -3.407000000
H     6.888000000     3.070000000    -2.077000000
O    -1.955000000    -3.005000000    -0.773000000
H    -2.371000000    -2.900000000     0.083000000
H    -1.451000000    -3.816000000    -0.696000000
O     1.614000000     1.267000000     2.241000000
H     1.101000000     0.795000000     1.584000000
H     1.235000000     1.000000000     3.078000000
O     6.239000000    -0.933000000    -4.708000000
H     6.416000000    -0.584000000    -5.582000000
H     7.098000000    -1.195000000    -4.377000000
O    -0.142000000    -5.006000000     1.641000000
H     0.366000000    -4.541000000     2.307000000
H    -1.048000000    -4.743000000     1.804000000
O     5.637000000    -1.463000000     0.085000000
H     5.671000000    -0.612000000     0.524000000
H     5.363000000    -1.261000000    -0.809000000
O     3.983000000    -0.928000000     4.364000000
H     4.190000000    -0.193000000     3.787000000
H     3.376000000    -0.564000000     5.008000000
