158
-3060.67215
C     1.079000000    -0.986000000    -0.114000000
H     2.015000000    -1.524000000    -0.240000000
C     0.708000000    -0.392000000     1.101000000
H     1.432000000    -0.424000000     1.911000000
C    -0.471000000     0.321000000     1.126000000
H    -0.775000000     0.818000000     2.131000000
C    -1.120000000     0.600000000    -0.111000000
H    -1.989000000     1.252000000    -0.139000000
C    -0.680000000     0.101000000    -1.320000000
H    -1.166000000     0.364000000    -2.256000000
C     0.460000000    -0.679000000    -1.353000000
C     1.063000000    -1.094000000    -2.678000000
O     0.351000000    -1.076000000    -3.665000000
O     2.239000000    -1.385000000    -2.697000000
O     0.197000000    -1.650000000    -6.195000000
H     0.580000000    -2.527000000    -6.230000000
H     0.366000000    -1.350000000    -5.302000000
O     2.234000000    -1.701000000     5.565000000
H     1.813000000    -2.128000000     4.818000000
H     2.025000000    -0.773000000     5.459000000
O    -4.535000000     1.874000000    -4.761000000
H    -4.668000000     1.453000000    -5.611000000
H    -4.433000000     2.803000000    -4.968000000
O    -0.718000000    -3.636000000    -1.053000000
H     0.124000000    -3.992000000    -1.336000000
H    -1.050000000    -3.169000000    -1.820000000
O     3.171000000     0.871000000    -4.438000000
H     2.790000000     0.090000000    -4.035000000
H     3.655000000     0.539000000    -5.194000000
O    -5.883000000     2.990000000    -1.365000000
H    -6.045000000     3.414000000    -0.521000000
H    -4.957000000     2.752000000    -1.340000000
O     1.726000000    -5.719000000     1.205000000
H     1.971000000    -6.217000000     1.986000000
H     1.029000000    -5.134000000     1.504000000
O    -0.419000000    -3.926000000     1.755000000
H    -1.286000000    -4.303000000     1.902000000
H    -0.385000000    -3.763000000     0.812000000
O     1.858000000    -4.450000000    -2.489000000
H     2.541000000    -4.922000000    -2.012000000
H     2.310000000    -3.699000000    -2.873000000
O    -4.211000000     1.508000000     4.782000000
H    -3.964000000     0.689000000     5.212000000
H    -4.902000000     1.257000000     4.169000000
O    -6.201000000     1.091000000     3.098000000
H    -7.047000000     1.536000000     3.057000000
H    -6.416000000     0.161000000     3.029000000
O    -3.215000000     3.264000000    -1.932000000
H    -3.296000000     2.392000000    -2.318000000
H    -2.932000000     3.822000000    -2.657000000
O     3.655000000     1.903000000     3.147000000
H     3.485000000     2.582000000     2.494000000
H     3.777000000     1.104000000     2.634000000
O    -1.512000000    -2.301000000     4.207000000
H    -1.990000000    -2.313000000     3.377000000
H    -0.594000000    -2.403000000     3.955000000
O     0.748000000    -0.161000000    -8.468000000
H     1.315000000     0.561000000    -8.196000000
H     0.706000000    -0.734000000    -7.702000000
O    -1.439000000     2.437000000    -7.316000000
H    -1.209000000     1.676000000    -7.850000000
H    -1.539000000     2.086000000    -6.431000000
O    -2.063000000    -2.110000000    -3.244000000
H    -2.077000000    -2.767000000    -3.940000000
H    -1.264000000    -1.608000000    -3.404000000
O    -0.344000000     1.827000000    -4.178000000
H    -0.072000000     1.266000000    -3.452000000
H    -0.871000000     1.256000000    -4.738000000
O    -4.450000000     2.592000000     1.534000000
H    -4.686000000     2.002000000     2.250000000
H    -5.130000000     3.266000000     1.545000000
O    -2.214000000     3.948000000     0.623000000
H    -2.859000000     3.493000000     1.165000000
H    -2.458000000     3.727000000    -0.276000000
O     4.077000000    -2.804000000    -6.721000000
H     4.046000000    -2.951000000    -7.667000000
H     3.159000000    -2.747000000    -6.457000000
O    -1.996000000     0.205000000    -5.764000000
H    -2.689000000    -0.330000000    -5.377000000
H    -1.369000000    -0.430000000    -6.109000000
O     2.261000000     1.256000000     5.556000000
H     2.559000000     1.386000000     4.656000000
H     2.764000000     1.889000000     6.068000000
O     0.711000000     4.068000000    -5.504000000
H     0.225000000     3.366000000    -5.070000000
H     1.511000000     4.160000000    -4.986000000
O     4.212000000    -5.285000000    -1.328000000
H     4.519000000    -6.177000000    -1.163000000
H     4.996000000    -4.809000000    -1.604000000
O    -4.291000000     0.727000000    -2.269000000
H    -4.229000000    -0.215000000    -2.424000000
H    -4.496000000     1.098000000    -3.128000000
O    -5.884000000    -0.126000000    -0.046000000
H    -6.627000000     0.284000000    -0.491000000
H    -5.114000000     0.227000000    -0.491000000
O     0.271000000     3.584000000     1.603000000
H     0.837000000     3.273000000     0.896000000
H    -0.582000000     3.712000000     1.188000000
O     2.557000000     3.157000000    -3.336000000
H     2.807000000     2.526000000    -4.011000000
H     2.397000000     2.623000000    -2.557000000
O     0.210000000    -6.196000000    -3.679000000
H    -0.432000000    -5.609000000    -4.080000000
H     0.923000000    -5.619000000    -3.405000000
O     1.642000000     5.511000000     4.962000000
H     1.138000000     5.836000000     4.215000000
H     2.000000000     6.300000000     5.369000000
O    -3.429000000    -1.109000000     2.249000000
H    -3.884000000    -0.420000000     2.734000000
H    -3.678000000    -0.964000000     1.336000000
O    -3.271000000     4.346000000     4.010000000
H    -3.800000000     3.561000000     4.149000000
H    -2.444000000     4.159000000     4.453000000
O    -3.554000000    -0.986000000     5.791000000
H    -2.778000000    -1.091000000     5.241000000
H    -3.361000000    -1.495000000     6.579000000
O    -1.873000000     2.401000000     6.153000000
H    -2.694000000     2.113000000     5.754000000
H    -1.369000000     2.768000000     5.426000000
O     6.877000000    -1.747000000    -0.181000000
H     6.143000000    -1.322000000    -0.625000000
H     7.454000000    -2.030000000    -0.890000000
O     1.503000000    -2.605000000     3.166000000
H     0.939000000    -3.237000000     2.720000000
H     2.272000000    -2.530000000     2.600000000
O     4.542000000    -0.849000000    -1.652000000
H     3.617000000    -0.983000000    -1.859000000
H     4.945000000    -0.621000000    -2.490000000
O    -0.220000000     5.003000000    -2.331000000
H    -0.223000000     5.559000000    -3.111000000
H    -0.947000000     4.395000000    -2.468000000
O     2.027000000     2.227000000    -0.456000000
H     1.724000000     1.341000000    -0.651000000
H     2.981000000     2.171000000    -0.509000000
O    -4.762000000    -1.967000000    -3.046000000
H    -3.821000000    -2.089000000    -3.174000000
H    -5.057000000    -2.788000000    -2.651000000
O    -0.118000000     0.367000000     7.073000000
H    -0.738000000     1.033000000     6.777000000
H     0.690000000     0.563000000     6.598000000
O    -0.663000000     3.911000000     4.136000000
H    -0.152000000     3.690000000     3.358000000
H    -0.099000000     4.503000000     4.634000000
O     3.959000000    -0.277000000     1.662000000
H     4.205000000    -1.177000000     1.449000000
H     4.130000000     0.214000000     0.858000000
O    -3.440000000     6.166000000     1.727000000
H    -3.835000000     5.841000000     2.535000000
H    -3.004000000     5.401000000     1.350000000
O     1.376000000    -4.311000000    -6.518000000
H     1.789000000    -4.982000000    -5.974000000
H     1.384000000    -4.680000000    -7.401000000
O     3.489000000    -3.633000000     1.224000000
H     4.099000000    -3.570000000     0.490000000
H     3.051000000    -4.475000000     1.101000000
O     0.845000000     6.119000000     2.297000000
H     0.716000000     5.195000000     2.083000000
H     0.256000000     6.587000000     1.706000000
