158
-3051.69583
C     1.249000000    -0.624000000    -0.388000000
H     2.262000000    -0.907000000    -0.662000000
C     1.009000000     0.130000000     0.790000000
H     1.810000000     0.469000000     1.441000000
C    -0.252000000     0.600000000     1.029000000
H    -0.392000000     1.302000000     1.912000000
C    -1.265000000     0.443000000     0.076000000
H    -2.228000000     0.838000000     0.387000000
C    -1.021000000    -0.273000000    -1.087000000
H    -1.782000000    -0.367000000    -1.858000000
C     0.258000000    -0.776000000    -1.372000000
C     0.602000000    -1.432000000    -2.643000000
O     0.005000000    -1.138000000    -3.677000000
O     1.672000000    -2.022000000    -2.677000000
O    -3.178000000     1.903000000     4.931000000
H    -2.361000000     2.325000000     4.663000000
H    -3.129000000     1.871000000     5.886000000
O     0.231000000    -2.627000000    -5.845000000
H     0.529000000    -3.457000000    -5.472000000
H     0.137000000    -2.046000000    -5.091000000
O    -0.682000000    -2.747000000     5.270000000
H    -0.337000000    -2.036000000     4.731000000
H    -0.864000000    -3.452000000     4.649000000
O    -3.926000000    -2.549000000    -1.144000000
H    -4.007000000    -1.845000000    -1.787000000
H    -4.131000000    -2.134000000    -0.306000000
O     3.633000000    -0.646000000    -3.778000000
H     3.064000000    -1.363000000    -3.495000000
H     3.561000000     0.006000000    -3.081000000
O    -1.629000000    -3.704000000    -0.474000000
H    -1.678000000    -3.138000000     0.297000000
H    -2.366000000    -3.430000000    -1.019000000
O     1.181000000    -4.363000000    -3.705000000
H     2.046000000    -4.691000000    -3.953000000
H     1.355000000    -3.513000000    -3.299000000
O     2.116000000     0.550000000     4.320000000
H     1.976000000    -0.087000000     3.619000000
H     2.103000000     0.029000000     5.123000000
O    -3.348000000    -0.541000000     3.206000000
H    -3.741000000    -0.081000000     2.464000000
H    -2.950000000     0.150000000     3.734000000
O    -5.049000000    -2.210000000     4.366000000
H    -4.610000000    -3.060000000     4.407000000
H    -4.348000000    -1.588000000     4.174000000
O     1.815000000    -1.182000000     6.434000000
H     2.139000000    -0.889000000     7.286000000
H     1.860000000    -2.137000000     6.476000000
O    -3.317000000     2.797000000    -2.295000000
H    -3.087000000     3.046000000    -1.400000000
H    -4.269000000     2.702000000    -2.281000000
O     4.283000000    -0.890000000     3.104000000
H     3.370000000    -1.176000000     3.064000000
H     4.773000000    -1.590000000     2.673000000
O    -1.219000000    -4.552000000     3.145000000
H    -0.446000000    -5.088000000     2.967000000
H    -1.047000000    -3.727000000     2.691000000
O    -5.584000000     0.582000000    -1.491000000
H    -5.364000000     0.142000000    -2.312000000
H    -6.536000000     0.678000000    -1.518000000
O    -1.184000000    -1.122000000    -7.460000000
H    -0.589000000    -0.378000000    -7.552000000
H    -0.682000000    -1.771000000    -6.968000000
O    -2.964000000    -4.599000000    -3.843000000
H    -2.931000000    -4.489000000    -4.794000000
H    -2.730000000    -3.739000000    -3.494000000
O     0.799000000     1.146000000    -4.811000000
H     0.645000000     0.470000000    -4.151000000
H     0.896000000     0.661000000    -5.631000000
O    -0.004000000     4.980000000     2.517000000
H    -0.236000000     4.250000000     3.091000000
H     0.732000000     4.653000000     2.000000000
O    -2.889000000     3.606000000     0.269000000
H    -3.578000000     4.113000000     0.699000000
H    -2.657000000     2.930000000     0.906000000
O    -2.371000000    -0.244000000    -4.927000000
H    -2.159000000    -0.535000000    -5.814000000
H    -1.545000000    -0.312000000    -4.449000000
O     1.757000000    -2.045000000     3.262000000
H     1.974000000    -2.633000000     3.985000000
H     1.571000000    -2.628000000     2.526000000
O     5.409000000    -0.784000000    -5.611000000
H     5.155000000    -1.622000000    -5.998000000
H     4.787000000    -0.652000000    -4.896000000
O     5.069000000     1.101000000     1.342000000
H     4.594000000     1.139000000     0.512000000
H     4.918000000     0.213000000     1.665000000
O     4.131000000     2.190000000     3.546000000
H     4.416000000     1.841000000     2.701000000
H     3.376000000     1.653000000     3.784000000
O     3.814000000    -5.550000000    -3.465000000
H     3.805000000    -6.458000000    -3.163000000
H     4.679000000    -5.438000000    -3.859000000
O    -5.099000000     2.039000000    -4.772000000
H    -5.460000000     1.165000000    -4.918000000
H    -4.152000000     1.903000000    -4.724000000
O    -0.114000000     1.041000000     6.388000000
H    -0.024000000     0.088000000     6.360000000
H    -0.382000000     1.230000000     7.287000000
O    -4.521000000     1.334000000     1.096000000
H    -5.313000000     1.686000000     1.503000000
H    -4.774000000     1.160000000     0.190000000
O     1.059000000     3.211000000    -0.619000000
H     1.740000000     3.475000000    -0.001000000
H     1.029000000     2.257000000    -0.550000000
O    -0.628000000    -5.875000000    -1.907000000
H    -1.213000000    -5.231000000    -1.507000000
H    -0.123000000    -5.374000000    -2.548000000
O    -1.534000000    -2.112000000     1.860000000
H    -0.984000000    -1.398000000     1.537000000
H    -2.153000000    -1.687000000     2.455000000
O    -4.690000000    -2.186000000     1.403000000
H    -5.318000000    -2.545000000     2.030000000
H    -3.900000000    -2.027000000     1.920000000
O    -0.374000000     2.857000000     4.339000000
H    -0.581000000     3.507000000     5.010000000
H    -0.140000000     2.070000000     4.831000000
O     5.460000000    -3.397000000     2.186000000
H     5.296000000    -2.800000000     1.455000000
H     6.342000000    -3.174000000     2.484000000
O     1.279000000    -3.843000000     1.381000000
H     1.291000000    -4.660000000     1.879000000
H     1.128000000    -4.116000000     0.476000000
O     3.734000000    -3.463000000    -1.735000000
H     2.922000000    -2.992000000    -1.920000000
H     3.577000000    -4.349000000    -2.060000000
O     1.759000000     3.523000000    -3.504000000
H     1.428000000     3.683000000    -2.620000000
H     1.520000000     2.615000000    -3.688000000
O     4.509000000     1.361000000    -1.271000000
H     5.415000000     1.246000000    -1.558000000
H     4.410000000     2.307000000    -1.165000000
O    -4.601000000    -0.999000000    -3.427000000
H    -5.194000000    -1.474000000    -4.009000000
H    -3.795000000    -0.902000000    -3.935000000
O    -6.039000000     2.619000000     4.134000000
H    -5.183000000     2.740000000     4.544000000
H    -6.051000000     1.699000000     3.870000000
O     6.299000000    -1.914000000    -2.504000000
H     5.899000000    -1.074000000    -2.729000000
H     5.559000000    -2.509000000    -2.392000000
O     1.590000000     3.348000000     6.464000000
H     2.195000000     3.604000000     5.768000000
H     1.187000000     2.540000000     6.146000000
O     2.882000000     4.133000000     1.063000000
H     3.606000000     4.504000000     0.559000000
H     3.214000000     4.087000000     1.960000000
O     4.880000000    -1.766000000     0.196000000
H     4.399000000    -2.545000000    -0.085000000
H     5.039000000    -1.279000000    -0.613000000
O    -1.963000000     6.724000000     3.123000000
H    -2.444000000     6.544000000     3.931000000
H    -1.258000000     6.077000000     3.114000000
O     2.261000000    -5.851000000    -0.944000000
H     1.332000000    -5.881000000    -1.173000000
H     2.652000000    -6.576000000    -1.432000000
O    -0.902000000     5.063000000    -1.269000000
H    -0.332000000     4.302000000    -1.159000000
H    -1.639000000     4.896000000    -0.681000000
