158
-3049.10241
C     0.702000000    -1.270000000     0.366000000
H     1.148000000    -2.154000000     0.814000000
C     0.705000000    -0.118000000     1.129000000
H     1.103000000    -0.049000000     2.139000000
C     0.069000000     1.057000000     0.670000000
H     0.106000000     2.047000000     1.240000000
C    -0.506000000     0.983000000    -0.590000000
H    -0.964000000     1.851000000    -1.057000000
C    -0.529000000    -0.167000000    -1.333000000
H    -1.212000000    -0.165000000    -2.178000000
C    -0.003000000    -1.327000000    -0.797000000
C    -0.163000000    -2.583000000    -1.640000000
O    -0.827000000    -2.619000000    -2.678000000
O     0.435000000    -3.605000000    -1.277000000
O    -3.971000000     3.244000000     4.083000000
H    -3.094000000     3.611000000     4.190000000
H    -4.535000000     3.814000000     4.605000000
O    -1.111000000    -4.008000000    -5.050000000
H    -1.468000000    -4.708000000    -4.504000000
H    -0.984000000    -3.276000000    -4.447000000
O    -0.402000000     6.862000000    -1.927000000
H     0.237000000     6.274000000    -2.329000000
H    -0.500000000     6.534000000    -1.033000000
O     2.352000000     3.913000000    -1.720000000
H     2.309000000     3.287000000    -2.444000000
H     3.277000000     3.932000000    -1.475000000
O    -2.725000000    -3.432000000     1.404000000
H    -2.571000000    -4.377000000     1.386000000
H    -3.625000000    -3.330000000     1.095000000
O     2.401000000    -4.526000000    -2.959000000
H     2.693000000    -4.695000000    -2.063000000
H     1.460000000    -4.370000000    -2.879000000
O    -2.944000000    -4.729000000    -2.031000000
H    -2.439000000    -5.534000000    -1.917000000
H    -2.341000000    -4.030000000    -1.776000000
O    -0.685000000    -5.900000000    -2.858000000
H     0.039000000    -6.438000000    -3.179000000
H    -0.291000000    -5.343000000    -2.187000000
O     0.053000000     1.741000000     4.374000000
H     0.369000000     0.851000000     4.222000000
H     0.251000000     1.912000000     5.294000000
O    -2.574000000     0.838000000     4.526000000
H    -1.788000000     0.835000000     3.980000000
H    -3.034000000     1.640000000     4.280000000
O    -4.449000000     3.388000000    -2.706000000
H    -5.148000000     2.959000000    -2.212000000
H    -4.493000000     4.305000000    -2.436000000
O     4.994000000    -0.943000000     4.309000000
H     5.007000000    -0.474000000     3.475000000
H     5.711000000    -1.573000000     4.240000000
O    -3.213000000    -0.159000000     1.300000000
H    -2.973000000    -0.991000000     1.707000000
H    -2.390000000     0.327000000     1.246000000
O    -4.431000000    -3.705000000    -5.249000000
H    -3.834000000    -3.210000000    -5.809000000
H    -4.385000000    -4.601000000    -5.584000000
O    -5.768000000    -4.262000000    -2.005000000
H    -6.002000000    -3.771000000    -2.793000000
H    -4.827000000    -4.417000000    -2.091000000
O     0.276000000    -0.705000000    -4.331000000
H    -0.016000000    -1.415000000    -3.758000000
H     0.740000000    -1.147000000    -5.042000000
O     0.199000000     7.866000000     1.465000000
H    -0.271000000     8.516000000     0.944000000
H    -0.486000000     7.291000000     1.806000000
O    -1.375000000     3.900000000     3.607000000
H    -0.654000000     4.528000000     3.577000000
H    -0.964000000     3.075000000     3.865000000
O    -3.862000000     3.392000000     1.335000000
H    -4.463000000     4.137000000     1.319000000
H    -3.713000000     3.223000000     2.265000000
O     0.863000000    -5.466000000    -6.394000000
H     0.067000000    -4.952000000    -6.262000000
H     0.884000000    -6.069000000    -5.651000000
O    -3.483000000    -1.872000000    -3.275000000
H    -3.831000000    -2.747000000    -3.449000000
H    -2.562000000    -2.020000000    -3.061000000
O    -2.244000000    -0.361000000    -7.064000000
H    -2.368000000    -0.148000000    -6.139000000
H    -1.687000000     0.342000000    -7.398000000
O    -5.820000000     2.015000000    -0.802000000
H    -5.016000000     2.116000000    -0.292000000
H    -6.060000000     1.095000000    -0.691000000
O     0.437000000    -0.992000000     4.604000000
H     0.381000000    -1.155000000     5.546000000
H     0.826000000    -1.791000000     4.246000000
O    -2.629000000     7.037000000     0.696000000
H    -2.787000000     6.787000000     1.607000000
H    -2.505000000     7.986000000     0.727000000
O     4.342000000    -3.853000000    -4.743000000
H     3.966000000    -4.353000000    -5.468000000
H     3.686000000    -3.909000000    -4.049000000
O     5.588000000    -0.081000000     1.959000000
H     5.420000000    -0.321000000     1.048000000
H     6.149000000     0.692000000     1.904000000
O     4.103000000     2.423000000     3.583000000
H     3.957000000     2.131000000     2.683000000
H     3.798000000     1.695000000     4.124000000
O    -4.965000000    -0.045000000    -4.958000000
H    -4.225000000    -0.618000000    -4.757000000
H    -5.678000000    -0.375000000    -4.410000000
O     2.825000000     0.161000000    -1.233000000
H     2.803000000     0.727000000    -2.005000000
H     1.932000000     0.190000000    -0.890000000
O     3.530000000     2.148000000     1.007000000
H     4.015000000     2.790000000     0.488000000
H     3.317000000     1.451000000     0.387000000
O     2.982000000    -1.889000000     5.867000000
H     2.717000000    -2.706000000     5.445000000
H     3.630000000    -1.511000000     5.273000000
O     0.908000000     5.641000000     3.122000000
H     0.904000000     6.470000000     2.643000000
H     1.343000000     5.026000000     2.531000000
O    -1.491000000    -2.636000000     3.820000000
H    -1.817000000    -2.985000000     2.990000000
H    -1.275000000    -1.723000000     3.627000000
O    -2.010000000    -6.078000000     1.513000000
H    -1.460000000    -6.549000000     2.139000000
H    -2.691000000    -6.706000000     1.273000000
O    -1.725000000     3.331000000    -3.288000000
H    -1.501000000     3.949000000    -2.592000000
H    -2.650000000     3.131000000    -3.142000000
O     1.593000000    -3.187000000     3.362000000
H     2.441000000    -3.043000000     2.942000000
H     1.057000000    -3.599000000     2.685000000
O     2.748000000    -5.391000000    -0.453000000
H     3.074000000    -5.240000000     0.434000000
H     1.837000000    -5.100000000    -0.426000000
O    -1.796000000     0.347000000     7.187000000
H    -1.425000000    -0.529000000     7.083000000
H    -2.129000000     0.571000000     6.319000000
O     0.717000000     2.005000000    -4.284000000
H     0.536000000     1.097000000    -4.040000000
H    -0.023000000     2.500000000    -3.931000000
O     5.416000000    -0.140000000    -0.672000000
H     5.675000000    -0.250000000    -1.587000000
H     4.461000000    -0.200000000    -0.685000000
O    -5.206000000    -0.628000000    -1.038000000
H    -4.541000000    -0.541000000    -0.355000000
H    -4.708000000    -0.809000000    -1.835000000
O     1.849000000     5.423000000     5.738000000
H     1.441000000     4.606000000     6.024000000
H     1.558000000     5.531000000     4.832000000
O     1.874000000     4.446000000     1.050000000
H     2.496000000     3.721000000     1.096000000
H     1.601000000     4.469000000     0.132000000
O     4.101000000    -4.857000000     2.087000000
H     4.198000000    -4.706000000     3.027000000
H     4.821000000    -4.369000000     1.690000000
O     0.156000000    -4.546000000     1.171000000
H     0.153000000    -4.155000000     0.297000000
H    -0.757000000    -4.788000000     1.328000000
O    -2.737000000     3.349000000    -5.763000000
H    -2.346000000     3.615000000    -4.932000000
H    -3.680000000     3.446000000    -5.627000000
O    -2.327000000     4.621000000    -0.637000000
H    -2.487000000     5.552000000    -0.484000000
H    -2.699000000     4.185000000     0.130000000
