158
-3025.87695
C     0.316000000    -1.417000000     0.226000000
H     0.473000000    -2.464000000     0.475000000
C     0.238000000    -0.453000000     1.222000000
H     0.442000000    -0.744000000     2.249000000
C    -0.028000000     0.878000000     0.935000000
H    -0.178000000     1.620000000     1.739000000
C    -0.253000000     1.187000000    -0.449000000
H    -0.443000000     2.181000000    -0.847000000
C    -0.237000000     0.194000000    -1.412000000
H    -0.418000000     0.490000000    -2.442000000
C     0.101000000    -1.116000000    -1.120000000
C     0.202000000    -2.162000000    -2.235000000
O    -0.288000000    -1.985000000    -3.339000000
O     0.675000000    -3.225000000    -1.989000000
O    -3.115000000     4.166000000     2.520000000
H    -2.457000000     4.079000000     1.831000000
H    -3.322000000     5.100000000     2.538000000
O     5.147000000    -1.771000000    -2.152000000
H     5.689000000    -2.472000000    -1.788000000
H     5.177000000    -1.912000000    -3.098000000
O    -2.024000000     5.019000000    -1.228000000
H    -1.289000000     4.637000000    -1.708000000
H    -1.707000000     5.880000000    -0.952000000
O    -4.021000000     1.181000000     6.087000000
H    -4.849000000     0.985000000     6.524000000
H    -4.136000000     0.853000000     5.195000000
O     2.604000000    -1.814000000    -6.350000000
H     2.069000000    -1.263000000    -5.779000000
H     2.451000000    -2.705000000    -6.035000000
O    -1.119000000    -3.866000000    -4.829000000
H    -1.254000000    -3.286000000    -5.579000000
H    -0.614000000    -3.340000000    -4.208000000
O    -4.443000000     1.326000000    -1.796000000
H    -4.294000000     2.270000000    -1.849000000
H    -4.448000000     1.138000000    -0.857000000
O     1.948000000    -5.166000000    -3.219000000
H     1.317000000    -5.878000000    -3.326000000
H     1.532000000    -4.568000000    -2.598000000
O    -2.628000000    -1.473000000     0.928000000
H    -1.877000000    -0.904000000     0.758000000
H    -3.368000000    -0.872000000     1.013000000
O     1.152000000    -4.303000000     2.890000000
H     0.502000000    -4.812000000     2.406000000
H     1.245000000    -4.764000000     3.723000000
O    -4.152000000    -2.600000000    -1.284000000
H    -3.607000000    -2.362000000    -0.534000000
H    -4.870000000    -3.108000000    -0.907000000
O     3.967000000    -2.432000000     0.370000000
H     4.249000000    -2.253000000    -0.527000000
H     3.717000000    -3.356000000     0.363000000
O    -1.916000000     2.649000000     4.515000000
H    -2.492000000     3.182000000     3.967000000
H    -2.497000000     2.266000000     5.172000000
O    -2.256000000    -0.807000000    -7.461000000
H    -1.407000000    -0.724000000    -7.894000000
H    -2.516000000     0.095000000    -7.271000000
O    -3.908000000    -4.323000000    -3.716000000
H    -3.634000000    -4.223000000    -2.805000000
H    -3.090000000    -4.439000000    -4.201000000
O    -2.829000000    -1.558000000    -3.556000000
H    -3.189000000    -1.601000000    -2.670000000
H    -1.889000000    -1.697000000    -3.440000000
O    -3.507000000     0.897000000    -4.268000000
H    -4.028000000     1.077000000    -3.486000000
H    -3.107000000     0.044000000    -4.099000000
O    -1.661000000    -1.696000000     3.633000000
H    -2.503000000    -1.737000000     4.088000000
H    -1.890000000    -1.706000000     2.704000000
O     4.197000000    -4.940000000     1.727000000
H     3.790000000    -5.554000000     1.116000000
H     3.539000000    -4.809000000     2.410000000
O    -0.593000000     5.045000000     4.823000000
H    -0.017000000     4.983000000     4.062000000
H    -0.965000000     4.167000000     4.914000000
O     5.144000000     2.703000000     2.715000000
H     4.847000000     1.794000000     2.752000000
H     4.354000000     3.220000000     2.873000000
O     3.473000000     1.002000000     0.189000000
H     3.201000000     1.167000000     1.092000000
H     2.943000000     0.254000000    -0.087000000
O    -2.563000000     1.764000000    -6.627000000
H    -2.655000000     1.823000000    -5.676000000
H    -2.025000000     2.519000000    -6.863000000
O     0.043000000    -1.463000000     5.643000000
H     0.509000000    -2.252000000     5.919000000
H    -0.546000000    -1.762000000     4.951000000
O     1.842000000    -4.685000000    -5.996000000
H     1.814000000    -4.487000000    -5.060000000
H     0.962000000    -5.002000000    -6.200000000
O     1.433000000     2.718000000     5.966000000
H     0.633000000     2.986000000     6.417000000
H     1.169000000     1.965000000     5.438000000
O    -4.284000000     0.923000000     0.872000000
H    -3.699000000     1.350000000     1.498000000
H    -5.135000000     1.337000000     1.020000000
O     0.124000000    -7.203000000    -3.106000000
H    -0.326000000    -6.442000000    -2.739000000
H    -0.532000000    -7.900000000    -3.088000000
O     1.514000000     3.602000000    -0.296000000
H     1.526000000     3.582000000    -1.253000000
H     2.020000000     2.834000000    -0.034000000
O     0.418000000     1.015000000     4.108000000
H    -0.399000000     1.505000000     4.207000000
H     0.173000000     0.105000000     4.273000000
O    -3.134000000    -7.106000000    -2.173000000
H    -4.027000000    -6.988000000    -1.848000000
H    -2.664000000    -6.329000000    -1.868000000
O     3.023000000     4.850000000     4.760000000
H     2.401000000     4.355000000     5.293000000
H     2.687000000     4.774000000     3.867000000
O     2.617000000     3.044000000    -2.789000000
H     2.513000000     3.203000000    -3.727000000
H     2.868000000     2.123000000    -2.728000000
O    -0.216000000     4.247000000    -2.928000000
H     0.552000000     4.788000000    -3.111000000
H    -0.081000000     3.454000000    -3.447000000
O     0.913000000     3.174000000    -5.409000000
H     0.386000000     3.496000000    -6.140000000
H     1.100000000     2.263000000    -5.632000000
O     3.929000000    -1.698000000     5.719000000
H     3.085000000    -1.703000000     5.267000000
H     4.578000000    -1.701000000     5.016000000
O    -0.163000000    -7.947000000     0.574000000
H     0.433000000    -7.314000000     0.174000000
H     0.231000000    -8.799000000     0.385000000
O     3.387000000     0.499000000    -2.924000000
H     4.084000000     0.842000000    -3.482000000
H     3.603000000    -0.427000000    -2.812000000
O    -1.000000000    -5.702000000     1.919000000
H    -1.519000000    -5.922000000     2.692000000
H    -0.880000000    -6.537000000     1.465000000
O    -1.743000000     7.628000000     3.284000000
H    -1.037000000     8.021000000     3.797000000
H    -1.447000000     6.733000000     3.115000000
O     1.189000000     0.082000000    -4.904000000
H     0.561000000    -0.478000000    -4.448000000
H     1.793000000     0.372000000    -4.220000000
O     2.739000000    -1.856000000     2.879000000
H     3.077000000    -1.969000000     1.990000000
H     2.021000000    -2.486000000     2.944000000
O    -5.170000000    -0.858000000    -5.544000000
H    -5.362000000    -1.321000000    -4.728000000
H    -4.306000000    -0.471000000    -5.402000000
O     4.633000000    -5.072000000    -2.052000000
H     3.877000000    -5.054000000    -2.638000000
H     4.436000000    -5.771000000    -1.428000000
O     2.797000000     4.719000000     2.092000000
H     2.144000000     4.760000000     1.394000000
H     3.551000000     5.195000000     1.742000000
O    -0.731000000    -5.170000000    -1.389000000
H    -0.724000000    -5.291000000    -0.440000000
H    -0.137000000    -4.436000000    -1.542000000
O    -0.607000000     4.727000000     1.120000000
H    -0.962000000     5.075000000     0.302000000
H     0.204000000     4.290000000     0.860000000
O     3.195000000     0.738000000     2.902000000
H     2.400000000     1.126000000     3.269000000
H     2.996000000    -0.196000000     2.834000000
