158
-3009.11763
C    -0.499000000    -1.294000000    -0.387000000
H    -0.702000000    -2.359000000    -0.474000000
C     0.418000000    -1.038000000     0.585000000
H     0.780000000    -1.846000000     1.215000000
C     0.884000000     0.230000000     0.811000000
H     1.599000000     0.480000000     1.563000000
C     0.315000000     1.303000000     0.151000000
H     0.571000000     2.348000000     0.306000000
C    -0.682000000     1.008000000    -0.829000000
H    -1.064000000     1.827000000    -1.433000000
C    -1.138000000    -0.257000000    -1.085000000
C    -2.186000000    -0.587000000    -2.157000000
O    -2.893000000     0.319000000    -2.526000000
O    -2.204000000    -1.715000000    -2.683000000
O     2.770000000    -3.918000000     1.916000000
H     3.232000000    -3.709000000     1.104000000
H     2.005000000    -4.420000000     1.635000000
O    -1.641000000    -1.565000000     4.589000000
H    -1.678000000    -0.993000000     3.823000000
H    -2.555000000    -1.668000000     4.855000000
O    -4.384000000     0.011000000    -4.805000000
H    -3.594000000    -0.121000000    -4.280000000
H    -4.079000000    -0.033000000    -5.711000000
O     5.672000000     4.321000000     1.934000000
H     6.155000000     3.660000000     2.430000000
H     4.800000000     3.943000000     1.817000000
O    -1.442000000    -1.118000000    -5.079000000
H    -0.757000000    -1.671000000    -5.455000000
H    -1.755000000    -1.609000000    -4.318000000
O    -3.040000000    -5.963000000    -3.715000000
H    -3.584000000    -6.667000000    -4.068000000
H    -2.326000000    -5.872000000    -4.346000000
O    -6.685000000    -3.373000000    -2.082000000
H    -5.745000000    -3.539000000    -2.163000000
H    -7.091000000    -4.229000000    -2.218000000
O    -5.077000000     3.587000000    -2.195000000
H    -5.598000000     2.903000000    -1.775000000
H    -4.545000000     3.121000000    -2.840000000
O     0.033000000    -3.303000000    -3.015000000
H     0.868000000    -2.868000000    -2.841000000
H    -0.627000000    -2.636000000    -2.828000000
O    -2.824000000     2.445000000     2.272000000
H    -2.418000000     2.907000000     3.005000000
H    -2.567000000     2.948000000     1.499000000
O     3.025000000     3.158000000     1.436000000
H     2.258000000     3.343000000     0.895000000
H     2.954000000     2.225000000     1.641000000
O     6.444000000     0.946000000    -1.328000000
H     6.999000000     1.627000000    -0.947000000
H     5.618000000     1.389000000    -1.519000000
O     1.170000000     5.045000000     4.119000000
H     1.665000000     4.338000000     3.705000000
H     0.254000000     4.785000000     4.022000000
O    -6.848000000    -0.978000000    -4.054000000
H    -6.852000000    -1.598000000    -3.324000000
H    -5.926000000    -0.753000000    -4.172000000
O     2.219000000     3.245000000    -5.142000000
H     2.936000000     2.653000000    -5.366000000
H     1.524000000     2.670000000    -4.822000000
O    -6.648000000    -2.161000000     0.192000000
H    -6.254000000    -2.525000000    -0.602000000
H    -7.407000000    -2.720000000     0.359000000
O    -5.480000000     0.626000000    -1.551000000
H    -5.195000000     0.492000000    -0.647000000
H    -4.672000000     0.594000000    -2.064000000
O    -2.219000000    -0.251000000     2.334000000
H    -1.509000000    -0.283000000     1.693000000
H    -2.486000000     0.669000000     2.350000000
O     4.148000000     2.296000000    -2.683000000
H     4.078000000     3.068000000    -3.244000000
H     3.413000000     1.742000000    -2.944000000
O     2.624000000    -2.147000000    -3.533000000
H     3.102000000    -1.703000000    -4.233000000
H     2.998000000    -3.028000000    -3.509000000
O     1.679000000     0.288000000    -2.506000000
H     1.371000000     0.079000000    -1.624000000
H     2.108000000    -0.513000000    -2.807000000
O     3.164000000     6.325000000     2.005000000
H     2.787000000     5.557000000     1.576000000
H     2.509000000     6.583000000     2.654000000
O     3.808000000     0.131000000     3.139000000
H     4.542000000    -0.449000000     2.935000000
H     3.094000000    -0.462000000     3.377000000
O    -3.768000000     2.413000000    -6.567000000
H    -4.628000000     2.001000000    -6.487000000
H    -3.878000000     3.064000000    -7.261000000
O    -8.055000000    -0.272000000    -1.467000000
H    -7.708000000    -0.936000000    -0.871000000
H    -7.287000000     0.056000000    -1.935000000
O    -1.368000000    -4.020000000     2.672000000
H    -1.827000000    -4.590000000     3.289000000
H    -1.240000000    -3.202000000     3.152000000
O     0.109000000    -5.939000000    -3.544000000
H    -0.511000000    -5.288000000    -3.214000000
H     0.696000000    -6.106000000    -2.807000000
O    -3.084000000    -1.006000000    -7.502000000
H    -2.564000000    -0.900000000    -6.705000000
H    -3.082000000    -1.950000000    -7.664000000
O     3.917000000     2.501000000     4.489000000
H     3.182000000     2.384000000     5.091000000
H     4.021000000     1.647000000     4.070000000
O    -4.872000000    -0.140000000     1.159000000
H    -5.256000000    -0.972000000     0.882000000
H    -3.934000000    -0.319000000     1.222000000
O    -0.444000000     4.493000000    -3.255000000
H    -0.835000000     4.017000000    -3.988000000
H    -1.159000000     4.597000000    -2.628000000
O     0.309000000     1.745000000    -4.137000000
H     0.802000000     1.248000000    -3.484000000
H    -0.377000000     1.144000000    -4.427000000
O     4.692000000     5.015000000     4.537000000
H     4.973000000     5.314000000     3.672000000
H     4.556000000     4.073000000     4.432000000
O     0.994000000     5.145000000     0.376000000
H     0.603000000     5.318000000    -0.481000000
H     0.503000000     5.702000000     0.980000000
O     1.185000000    -1.042000000     4.869000000
H     0.264000000    -1.106000000     4.616000000
H     1.480000000    -1.951000000     4.927000000
O     1.407000000    -6.212000000    -1.294000000
H     0.836000000    -6.856000000    -0.873000000
H     2.230000000    -6.268000000    -0.809000000
O     1.010000000    -3.804000000    -5.585000000
H     0.808000000    -3.965000000    -4.663000000
H     1.966000000    -3.832000000    -5.629000000
O     5.253000000    -1.765000000     1.431000000
H     6.019000000    -2.017000000     0.916000000
H     4.520000000    -1.827000000     0.818000000
O     3.272000000     6.364000000    -1.640000000
H     2.718000000     6.608000000    -2.382000000
H     2.921000000     5.524000000    -1.345000000
O     7.922000000    -0.585000000     2.550000000
H     8.637000000    -1.198000000     2.382000000
H     7.135000000    -1.130000000     2.562000000
O     2.889000000    -4.913000000    -2.971000000
H     2.128000000    -5.341000000    -2.578000000
H     3.642000000    -5.362000000    -2.586000000
O     2.175000000    -3.491000000     4.714000000
H     2.538000000    -3.311000000     3.847000000
H     2.277000000    -4.437000000     4.824000000
O    -3.111000000     3.003000000    -3.908000000
H    -3.095000000     2.106000000    -3.572000000
H    -3.149000000     2.902000000    -4.859000000
O     0.293000000    -5.974000000     1.993000000
H    -0.387000000    -5.305000000     2.073000000
H    -0.161000000    -6.734000000     1.628000000
O    -3.936000000    -3.538000000    -2.270000000
H    -3.363000000    -2.792000000    -2.450000000
H    -3.383000000    -4.305000000    -2.414000000
O     1.484000000     1.673000000     5.812000000
H     0.659000000     1.821000000     6.273000000
H     1.512000000     0.727000000     5.669000000
O     3.875000000    -3.129000000    -0.486000000
H     3.659000000    -3.394000000    -1.380000000
H     4.582000000    -3.719000000    -0.224000000
O    -3.217000000     6.405000000    -0.172000000
H    -4.002000000     6.831000000    -0.516000000
H    -3.127000000     5.609000000    -0.696000000
