158
-3053.42467
C    -1.044000000    -0.986000000     0.529000000
H    -1.786000000    -1.651000000     0.964000000
C     0.038000000    -0.467000000     1.295000000
H     0.261000000    -0.648000000     2.343000000
C     0.996000000     0.375000000     0.644000000
H     1.800000000     0.862000000     1.158000000
C     0.813000000     0.739000000    -0.655000000
H     1.520000000     1.398000000    -1.152000000
C    -0.255000000     0.181000000    -1.387000000
H    -0.345000000     0.309000000    -2.462000000
C    -1.214000000    -0.637000000    -0.845000000
C    -2.408000000    -1.110000000    -1.641000000
O    -2.617000000    -0.594000000    -2.704000000
O    -3.193000000    -1.915000000    -1.183000000
O     1.291000000    -3.835000000     3.053000000
H     0.823000000    -3.275000000     3.673000000
H     1.888000000    -3.242000000     2.598000000
O    -3.349000000    -3.378000000     4.097000000
H    -3.303000000    -4.333000000     4.146000000
H    -3.542000000    -3.101000000     4.992000000
O    -5.304000000     1.325000000    -5.005000000
H    -5.304000000     1.618000000    -5.916000000
H    -4.759000000     0.538000000    -5.006000000
O    -2.309000000    -0.362000000    -7.146000000
H    -3.055000000    -0.724000000    -6.668000000
H    -1.573000000    -0.925000000    -6.903000000
O    -5.365000000    -2.744000000    -2.395000000
H    -4.534000000    -2.433000000    -2.037000000
H    -5.691000000    -3.362000000    -1.741000000
O     1.566000000    -3.234000000    -4.306000000
H     1.615000000    -4.101000000    -4.709000000
H     1.372000000    -3.410000000    -3.385000000
O    -4.171000000    -4.256000000    -4.642000000
H    -4.986000000    -4.054000000    -4.181000000
H    -3.534000000    -4.412000000    -3.944000000
O    -2.321000000    -4.046000000    -2.596000000
H    -1.386000000    -4.128000000    -2.405000000
H    -2.548000000    -3.162000000    -2.307000000
O    -4.310000000     3.003000000    -1.127000000
H    -3.550000000     2.747000000    -0.604000000
H    -4.309000000     3.960000000    -1.098000000
O     2.813000000     2.473000000    -3.334000000
H     1.965000000     2.560000000    -2.899000000
H     3.188000000     1.671000000    -2.971000000
O     4.500000000     3.731000000    -1.576000000
H     5.166000000     4.386000000    -1.785000000
H     3.714000000     4.036000000    -2.030000000
O    -1.302000000     2.747000000     3.955000000
H    -0.858000000     1.919000000     4.135000000
H    -2.096000000     2.714000000     4.489000000
O     4.438000000     1.108000000    -1.550000000
H     4.376000000     2.061000000    -1.487000000
H     4.268000000     0.797000000    -0.661000000
O     4.597000000     0.562000000     1.277000000
H     4.201000000     0.963000000     2.051000000
H     5.255000000    -0.038000000     1.629000000
O     0.473000000     0.727000000    -5.355000000
H     1.269000000     0.702000000    -4.825000000
H     0.365000000    -0.172000000    -5.668000000
O    -7.747000000    -1.548000000    -2.144000000
H    -6.798000000    -1.570000000    -2.271000000
H    -7.902000000    -2.124000000    -1.395000000
O    -5.243000000     0.383000000    -1.515000000
H    -5.293000000     1.305000000    -1.767000000
H    -4.498000000     0.040000000    -2.009000000
O     2.972000000     5.104000000     5.939000000
H     2.725000000     5.954000000     5.574000000
H     2.447000000     4.471000000     5.449000000
O    -1.969000000     2.194000000     0.157000000
H    -2.080000000     1.563000000     0.867000000
H    -1.604000000     1.682000000    -0.564000000
O     2.508000000    -0.817000000    -3.626000000
H     1.946000000    -1.568000000    -3.815000000
H     3.187000000    -0.850000000    -4.301000000
O     0.437000000    -3.407000000    -1.671000000
H     0.314000000    -2.513000000    -1.354000000
H     0.511000000    -3.935000000    -0.876000000
O     2.770000000    -1.509000000    -1.061000000
H     2.561000000    -0.849000000    -0.400000000
H     2.410000000    -1.156000000    -1.875000000
O     1.852000000     2.581000000     6.058000000
H     1.446000000     1.787000000     5.710000000
H     1.258000000     2.870000000     6.751000000
O     2.740000000    -1.001000000     4.047000000
H     3.271000000    -0.226000000     4.231000000
H     3.174000000    -1.417000000     3.302000000
O    -7.300000000    -0.574000000     0.698000000
H    -7.807000000     0.238000000     0.702000000
H    -6.563000000    -0.393000000     0.115000000
O    -3.976000000    -6.185000000    -1.757000000
H    -3.449000000    -5.431000000    -2.023000000
H    -3.499000000    -6.561000000    -1.017000000
O     3.796000000    -3.880000000    -0.372000000
H     3.112000000    -4.544000000    -0.285000000
H     3.321000000    -3.071000000    -0.562000000
O     4.181000000     1.403000000     4.252000000
H     4.980000000     1.894000000     4.063000000
H     3.683000000     1.972000000     4.839000000
O    -4.452000000     1.089000000     1.171000000
H    -4.639000000     1.957000000     1.528000000
H    -4.751000000     1.135000000     0.263000000
O    -2.860000000    -0.177000000     3.687000000
H    -2.859000000    -1.100000000     3.433000000
H    -3.355000000     0.261000000     2.994000000
O     0.335000000     3.206000000    -2.633000000
H    -0.276000000     3.081000000    -3.360000000
H    -0.056000000     3.905000000    -2.109000000
O    -0.977000000     5.553000000     4.129000000
H    -0.781000000     4.618000000     4.068000000
H    -1.214000000     5.689000000     5.046000000
O    -2.029000000     1.498000000    -4.349000000
H    -1.255000000     1.174000000    -4.810000000
H    -2.217000000     0.825000000    -3.695000000
O     5.198000000     3.269000000     0.982000000
H     5.344000000     3.401000000     0.045000000
H     5.208000000     2.318000000     1.094000000
O    -3.777000000    -1.341000000    -4.976000000
H    -4.040000000    -2.229000000    -4.733000000
H    -3.151000000    -1.083000000    -4.300000000
O     4.047000000     5.552000000     2.090000000
H     4.249000000     4.716000000     1.670000000
H     3.249000000     5.383000000     2.590000000
O     3.738000000    -2.658000000     2.119000000
H     4.628000000    -2.326000000     2.232000000
H     3.811000000    -3.309000000     1.422000000
O     1.875000000     5.368000000    -3.677000000
H     1.088000000     5.417000000    -4.220000000
H     2.021000000     4.430000000    -3.553000000
O    -3.108000000    -4.330000000     0.933000000
H    -2.532000000    -4.170000000     0.185000000
H    -3.416000000    -3.461000000     1.189000000
O    -0.042000000    -2.414000000     4.797000000
H     0.107000000    -2.232000000     5.725000000
H    -0.823000000    -1.906000000     4.576000000
O    -5.896000000    -4.423000000     1.864000000
H    -5.401000000    -3.630000000     2.071000000
H    -6.301000000    -4.237000000     1.017000000
O     1.347000000     5.531000000     2.355000000
H     1.517000000     5.875000000     1.479000000
H     0.473000000     5.144000000     2.295000000
O    -0.110000000    -2.087000000    -5.911000000
H    -0.742000000    -2.768000000    -6.141000000
H     0.541000000    -2.536000000    -5.371000000
O    -4.578000000    -1.756000000     1.083000000
H    -4.146000000    -1.737000000     0.229000000
H    -4.690000000    -0.834000000     1.315000000
O     0.290000000     0.358000000     5.066000000
H     0.687000000    -0.365000000     4.581000000
H    -0.408000000    -0.052000000     5.577000000
O     0.690000000    -4.762000000     0.580000000
H     0.652000000    -4.424000000     1.475000000
H     1.252000000    -5.535000000     0.640000000
O    -2.416000000     4.066000000    -3.624000000
H    -3.193000000     4.321000000    -3.127000000
H    -2.496000000     3.117000000    -3.724000000
O     6.280000000    -1.594000000     3.042000000
H     6.540000000    -1.721000000     3.955000000
H     6.955000000    -2.046000000     2.536000000
