158
-3045.22599
C    -1.372000000    -0.389000000     0.363000000
H    -2.337000000    -0.735000000     0.722000000
C    -0.496000000     0.261000000     1.214000000
H    -0.793000000     0.484000000     2.236000000
C     0.839000000     0.493000000     0.819000000
H     1.496000000     1.023000000     1.529000000
C     1.134000000     0.226000000    -0.526000000
H     2.090000000     0.533000000    -0.942000000
C     0.208000000    -0.311000000    -1.417000000
H     0.578000000    -0.310000000    -2.439000000
C    -1.037000000    -0.715000000    -0.963000000
C    -1.921000000    -1.382000000    -2.002000000
O    -1.422000000    -2.099000000    -2.858000000
O    -3.120000000    -1.525000000    -1.715000000
O    -5.770000000    -3.978000000     2.394000000
H    -5.507000000    -3.999000000     3.314000000
H    -5.776000000    -3.048000000     2.168000000
O     0.115000000    -4.375000000    -0.404000000
H     0.506000000    -3.746000000     0.202000000
H     0.840000000    -4.649000000    -0.966000000
O     4.314000000     5.946000000    -0.020000000
H     4.629000000     6.135000000    -0.904000000
H     4.258000000     4.991000000     0.016000000
O    -5.220000000    -0.498000000    -0.798000000
H    -4.396000000    -0.793000000    -1.186000000
H    -5.669000000    -1.305000000    -0.546000000
O     5.010000000     5.951000000     3.064000000
H     5.196000000     6.887000000     2.995000000
H     4.610000000     5.723000000     2.225000000
O    -4.193000000     0.943000000    -5.872000000
H    -4.903000000     0.701000000    -5.277000000
H    -3.549000000     0.242000000    -5.774000000
O    -0.350000000     5.578000000     0.498000000
H     0.551000000     5.787000000     0.747000000
H    -0.324000000     4.651000000     0.262000000
O    -4.300000000    -3.967000000    -2.415000000
H    -3.969000000    -3.091000000    -2.216000000
H    -3.517000000    -4.518000000    -2.444000000
O     0.169000000    -2.158000000    -6.669000000
H    -0.668000000    -1.747000000    -6.456000000
H     0.707000000    -2.028000000    -5.888000000
O    -4.504000000     0.826000000     2.622000000
H    -4.193000000     0.978000000     1.730000000
H    -4.878000000    -0.055000000     2.598000000
O    -1.817000000    -4.970000000    -2.440000000
H    -1.430000000    -4.096000000    -2.488000000
H    -1.110000000    -5.527000000    -2.114000000
O    -1.320000000     2.791000000    -0.286000000
H    -2.203000000     2.447000000    -0.152000000
H    -0.765000000     2.012000000    -0.340000000
O     3.096000000     1.877000000    -3.685000000
H     3.624000000     1.268000000    -3.168000000
H     2.995000000     2.644000000    -3.121000000
O    -3.696000000     3.606000000     3.538000000
H    -3.530000000     4.011000000     2.687000000
H    -4.512000000     3.120000000     3.417000000
O     4.518000000    -0.380000000     0.143000000
H     5.333000000    -0.787000000     0.437000000
H     4.276000000    -0.869000000    -0.643000000
O    -5.653000000    -2.033000000    -4.611000000
H    -5.822000000    -1.567000000    -3.793000000
H    -5.406000000    -2.916000000    -4.337000000
O    -0.148000000    -3.992000000     3.240000000
H     0.001000000    -4.180000000     4.166000000
H    -1.096000000    -3.882000000     3.167000000
O     4.064000000     2.720000000     0.722000000
H     4.943000000     3.093000000     0.785000000
H     4.180000000     1.794000000     0.938000000
O     3.909000000    -1.377000000    -2.537000000
H     3.657000000    -1.135000000    -3.428000000
H     3.650000000    -2.295000000    -2.456000000
O    -0.666000000     0.677000000    -5.946000000
H    -1.143000000     1.411000000    -6.335000000
H    -1.230000000     0.376000000    -5.234000000
O    -3.846000000     1.709000000     0.022000000
H    -4.475000000     2.430000000     0.005000000
H    -4.357000000     0.940000000    -0.234000000
O    -5.795000000     0.584000000    -3.539000000
H    -5.481000000     0.572000000    -2.634000000
H    -6.109000000     1.479000000    -3.671000000
O     1.731000000     4.158000000     1.754000000
H     1.260000000     3.367000000     2.013000000
H     2.632000000     3.866000000     1.615000000
O     6.831000000    -0.428000000    -2.111000000
H     5.970000000    -0.845000000    -2.074000000
H     7.302000000    -0.911000000    -2.790000000
O    -0.626000000     3.632000000     4.097000000
H    -1.268000000     4.331000000     3.972000000
H    -1.147000000     2.829000000     4.112000000
O    -2.819000000    -5.990000000    -4.834000000
H    -2.048000000    -6.303000000    -5.308000000
H    -2.462000000    -5.548000000    -4.063000000
O     3.142000000    -0.598000000    -5.160000000
H     2.347000000    -1.000000000    -5.511000000
H     2.825000000     0.099000000    -4.586000000
O    -2.232000000     3.755000000    -2.878000000
H    -1.625000000     3.847000000    -3.612000000
H    -1.764000000     3.205000000    -2.249000000
O    -3.404000000     4.466000000     1.089000000
H    -2.523000000     4.188000000     0.839000000
H    -3.305000000     5.386000000     1.334000000
O    -4.259000000    -6.100000000     1.080000000
H    -5.066000000    -5.751000000     1.459000000
H    -3.893000000    -5.368000000     0.583000000
O    -2.737000000    -3.467000000     3.485000000
H    -3.360000000    -3.199000000     4.160000000
H    -3.281000000    -3.837000000     2.789000000
O    -6.301000000    -1.350000000     2.021000000
H    -6.861000000    -1.519000000     2.778000000
H    -6.882000000    -0.942000000     1.379000000
O    -2.943000000     0.940000000     4.768000000
H    -2.449000000     0.222000000     4.371000000
H    -3.564000000     1.208000000     4.091000000
O     1.034000000    -2.687000000    -4.080000000
H     1.235000000    -3.606000000    -3.904000000
H     0.176000000    -2.548000000    -3.678000000
O     0.204000000     2.274000000    -3.491000000
H     1.153000000     2.364000000    -3.580000000
H    -0.117000000     2.219000000    -4.391000000
O     4.313000000     0.045000000     4.196000000
H     3.498000000     0.213000000     4.669000000
H     4.097000000     0.217000000     3.280000000
O     1.326000000     4.371000000     6.180000000
H     0.438000000     4.644000000     6.411000000
H     1.203000000     3.624000000     5.595000000
O     2.716000000     4.388000000    -2.442000000
H     2.369000000     4.560000000    -1.567000000
H     2.831000000     5.256000000    -2.830000000
O     6.443000000     1.330000000     5.759000000
H     6.991000000     1.672000000     5.052000000
H     5.822000000     0.748000000     5.321000000
O    -1.257000000    -1.126000000     4.293000000
H    -0.751000000    -1.354000000     5.073000000
H    -1.574000000    -1.965000000     3.959000000
O    -2.841000000    -1.223000000    -4.974000000
H    -3.729000000    -1.572000000    -4.895000000
H    -2.343000000    -1.678000000    -4.295000000
O     4.073000000    -3.753000000     2.295000000
H     3.503000000    -3.055000000     1.971000000
H     3.587000000    -4.140000000     3.023000000
O    -6.932000000    -3.058000000    -0.166000000
H    -6.701000000    -3.631000000     0.564000000
H    -6.828000000    -3.606000000    -0.944000000
O    -2.636000000    -3.677000000     0.561000000
H    -2.928000000    -3.401000000    -0.307000000
H    -1.704000000    -3.867000000     0.451000000
O    -7.752000000     0.364000000     0.202000000
H    -8.053000000     1.264000000     0.078000000
H    -6.942000000     0.310000000    -0.306000000
O     1.801000000     5.997000000     3.817000000
H     1.644000000     5.485000000     4.611000000
H     1.778000000     5.354000000     3.109000000
O     1.465000000     0.608000000     4.755000000
H     1.222000000     0.714000000     5.675000000
H     0.663000000     0.308000000     4.328000000
O     1.274000000    -2.598000000     1.388000000
H     0.889000000    -1.724000000     1.315000000
H     0.786000000    -3.015000000     2.098000000
