158
-3051.70732
C    -1.282000000     0.181000000     0.683000000
H    -2.184000000     0.208000000     1.289000000
C    -0.079000000     0.742000000     1.114000000
H    -0.036000000     1.133000000     2.127000000
C     1.068000000     0.548000000     0.329000000
H     2.037000000     0.906000000     0.721000000
C     0.995000000    -0.184000000    -0.866000000
H     1.848000000    -0.289000000    -1.531000000
C    -0.261000000    -0.675000000    -1.267000000
H    -0.344000000    -1.239000000    -2.193000000
C    -1.425000000    -0.555000000    -0.488000000
C    -2.688000000    -1.292000000    -0.789000000
O    -2.719000000    -2.145000000    -1.649000000
O    -3.699000000    -1.111000000    -0.110000000
O    -0.038000000    -3.741000000    -0.041000000
H    -0.303000000    -4.446000000    -0.631000000
H     0.587000000    -3.225000000    -0.549000000
O    -0.055000000    -4.453000000    -5.952000000
H     0.741000000    -4.839000000    -5.587000000
H    -0.624000000    -4.317000000    -5.194000000
O     7.969000000     0.808000000     0.519000000
H     8.846000000     1.038000000     0.824000000
H     7.633000000     0.209000000     1.186000000
O    -4.098000000     1.450000000     0.619000000
H    -4.067000000     0.543000000     0.314000000
H    -4.531000000     1.401000000     1.471000000
O     3.377000000     1.268000000    -5.960000000
H     2.772000000     1.051000000    -6.669000000
H     2.810000000     1.483000000    -5.219000000
O    -4.543000000     3.325000000    -1.378000000
H    -4.189000000     2.940000000    -0.577000000
H    -4.397000000     2.657000000    -2.049000000
O    -6.012000000    -2.156000000    -0.515000000
H    -5.262000000    -1.575000000    -0.391000000
H    -5.624000000    -3.006000000    -0.723000000
O    -3.094000000    -1.353000000    -6.355000000
H    -3.228000000    -1.805000000    -7.188000000
H    -3.488000000    -1.931000000    -5.702000000
O     5.324000000     2.037000000    -2.986000000
H     5.484000000     2.274000000    -3.899000000
H     5.652000000     1.141000000    -2.909000000
O    -4.333000000    -4.353000000    -0.954000000
H    -3.637000000    -3.717000000    -1.122000000
H    -4.014000000    -4.868000000    -0.213000000
O    -1.986000000     5.072000000    -0.286000000
H    -1.081000000     5.367000000    -0.188000000
H    -1.914000000     4.198000000    -0.669000000
O     3.057000000     2.435000000    -1.519000000
H     3.829000000     2.194000000    -2.032000000
H     2.548000000     1.627000000    -1.457000000
O    -1.498000000     0.607000000    -4.553000000
H    -1.730000000    -0.092000000    -5.165000000
H    -2.300000000     0.766000000    -4.055000000
O     4.648000000     2.141000000     1.302000000
H     4.735000000     2.191000000     0.350000000
H     5.379000000     2.660000000     1.637000000
O    -6.802000000    -0.452000000    -2.838000000
H    -6.917000000     0.437000000    -2.503000000
H    -6.958000000    -1.016000000    -2.080000000
O     4.175000000     0.154000000     6.007000000
H     4.221000000     0.999000000     6.454000000
H     4.303000000     0.365000000     5.082000000
O     2.556000000     3.836000000     0.975000000
H     3.233000000     3.742000000     1.645000000
H     2.881000000     3.326000000     0.233000000
O     6.172000000     4.174000000     1.950000000
H     7.111000000     4.019000000     1.850000000
H     6.018000000     5.008000000     1.505000000
O     3.803000000    -1.411000000     0.005000000
H     4.098000000    -2.309000000     0.157000000
H     2.924000000    -1.381000000     0.384000000
O    -3.969000000     1.347000000    -3.355000000
H    -3.954000000     1.903000000    -4.135000000
H    -4.482000000     0.582000000    -3.616000000
O     1.334000000     4.715000000     4.001000000
H     0.650000000     4.082000000     4.222000000
H     1.577000000     4.500000000     3.100000000
O     5.266000000     4.800000000     4.515000000
H     6.119000000     4.582000000     4.889000000
H     5.251000000     4.350000000     3.671000000
O     6.043000000    -0.242000000    -1.059000000
H     5.376000000    -0.383000000    -0.387000000
H     6.641000000     0.397000000    -0.673000000
O    -3.982000000    -5.543000000    -4.402000000
H    -3.600000000    -6.087000000    -5.091000000
H    -3.285000000    -4.931000000    -4.167000000
O     1.190000000     1.336000000    -4.343000000
H     0.355000000     1.018000000    -4.686000000
H     0.993000000     2.207000000    -4.000000000
O     5.606000000    -2.341000000    -2.723000000
H     5.339000000    -1.936000000    -3.548000000
H     5.476000000    -1.656000000    -2.067000000
O    -0.311000000     3.997000000    -3.454000000
H    -0.790000000     4.285000000    -4.231000000
H    -0.916000000     3.408000000    -3.004000000
O    -3.961000000    -5.183000000     1.845000000
H    -4.382000000    -5.389000000     2.679000000
H    -3.772000000    -4.246000000     1.896000000
O    -6.302000000    -5.054000000    -2.867000000
H    -5.732000000    -4.739000000    -2.165000000
H    -5.725000000    -5.568000000    -3.432000000
O    -2.858000000    -3.609000000     4.577000000
H    -3.387000000    -2.997000000     5.089000000
H    -2.817000000    -3.217000000     3.704000000
O     2.368000000    -3.287000000    -1.845000000
H     3.029000000    -3.848000000    -2.251000000
H     2.208000000    -2.599000000    -2.492000000
O    -7.242000000     0.211000000     2.500000000
H    -7.444000000    -0.643000000     2.118000000
H    -7.042000000     0.022000000     3.417000000
O    -3.584000000     2.468000000     4.387000000
H    -3.028000000     2.979000000     3.799000000
H    -4.468000000     2.580000000     4.037000000
O     1.781000000    -1.420000000    -4.062000000
H     1.690000000    -0.471000000    -4.155000000
H     1.018000000    -1.779000000    -4.514000000
O     2.099000000     4.815000000    -2.793000000
H     1.159000000     4.632000000    -2.799000000
H     2.447000000     4.257000000    -2.098000000
O    -1.559000000    -3.655000000    -3.725000000
H    -1.096000000    -4.190000000    -3.081000000
H    -1.918000000    -2.927000000    -3.218000000
O    -1.816000000     2.369000000    -2.018000000
H    -1.898000000     1.734000000    -1.306000000
H    -2.582000000     2.211000000    -2.569000000
O     0.762000000     5.741000000     0.122000000
H     1.240000000     5.003000000     0.500000000
H     1.439000000     6.386000000    -0.081000000
O    -0.793000000     0.076000000     4.778000000
H    -0.387000000    -0.080000000     5.630000000
H    -0.416000000    -0.594000000     4.207000000
O    -4.371000000    -1.399000000    -3.819000000
H    -5.271000000    -1.299000000    -3.510000000
H    -3.889000000    -1.717000000    -3.056000000
O     4.304000000    -2.478000000     3.388000000
H     3.511000000    -2.655000000     2.882000000
H     4.387000000    -1.525000000     3.377000000
O    -8.124000000    -2.413000000     1.298000000
H    -7.389000000    -2.262000000     0.703000000
H    -8.841000000    -1.898000000     0.927000000
O    -2.637000000    -2.611000000     1.854000000
H    -3.117000000    -1.979000000     1.319000000
H    -1.972000000    -2.967000000     1.265000000
O     4.982000000     0.230000000     3.414000000
H     4.830000000     0.731000000     2.613000000
H     5.904000000    -0.022000000     3.368000000
O    -0.460000000     2.944000000     4.840000000
H    -0.365000000     3.092000000     5.781000000
H    -0.721000000     2.026000000     4.766000000
O    -1.068000000    -5.865000000    -1.302000000
H    -0.195000000    -6.204000000    -1.103000000
H    -1.615000000    -6.646000000    -1.385000000
O     1.765000000    -3.118000000     2.161000000
H     1.094000000    -2.812000000     1.552000000
H     1.338000000    -3.102000000     3.017000000
O     5.952000000     4.602000000    -1.807000000
H     5.719000000     5.191000000    -2.524000000
H     5.920000000     3.728000000    -2.194000000
