158
-3042.60250
C    -1.180000000    -0.600000000     0.631000000
H    -1.950000000    -1.149000000     1.167000000
C    -0.078000000    -0.049000000     1.351000000
H     0.015000000    -0.006000000     2.434000000
C     0.972000000     0.438000000     0.588000000
H     1.787000000     0.994000000     1.115000000
C     0.917000000     0.422000000    -0.780000000
H     1.770000000     0.886000000    -1.270000000
C    -0.147000000    -0.115000000    -1.479000000
H    -0.120000000    -0.237000000    -2.559000000
C    -1.281000000    -0.552000000    -0.762000000
C    -2.408000000    -1.165000000    -1.482000000
O    -2.389000000    -1.439000000    -2.662000000
O    -3.483000000    -1.317000000    -0.923000000
O     5.219000000     5.266000000    -0.891000000
H     4.787000000     4.431000000    -1.073000000
H     5.940000000     5.040000000    -0.304000000
O    -5.576000000    -0.046000000    -0.122000000
H    -4.753000000    -0.425000000    -0.431000000
H    -5.704000000    -0.425000000     0.747000000
O     7.117000000     2.633000000    -0.529000000
H     6.343000000     2.483000000    -1.073000000
H     7.640000000     1.838000000    -0.635000000
O    -0.233000000     6.056000000     0.598000000
H     0.422000000     6.589000000     0.148000000
H    -0.163000000     5.193000000     0.189000000
O    -1.707000000     2.744000000    -5.914000000
H    -2.463000000     2.880000000    -6.484000000
H    -2.045000000     2.215000000    -5.191000000
O    -7.196000000    -3.603000000    -2.022000000
H    -7.167000000    -4.532000000    -2.250000000
H    -6.352000000    -3.258000000    -2.312000000
O    -0.141000000    -1.006000000    -6.074000000
H    -0.157000000    -1.951000000    -5.924000000
H     0.786000000    -0.771000000    -6.025000000
O     3.748000000     0.020000000     4.409000000
H     3.099000000     0.544000000     4.878000000
H     4.172000000     0.639000000     3.815000000
O    -3.921000000    -3.902000000     0.087000000
H    -3.907000000    -2.994000000    -0.216000000
H    -3.512000000    -4.397000000    -0.623000000
O     3.751000000    -4.614000000     3.883000000
H     3.518000000    -3.692000000     3.770000000
H     3.484000000    -5.030000000     3.064000000
O     4.229000000     2.634000000    -1.877000000
H     4.371000000     2.329000000    -2.773000000
H     4.143000000     1.832000000    -1.362000000
O    -2.521000000     0.651000000    -4.586000000
H    -1.891000000     0.351000000    -5.240000000
H    -2.709000000    -0.125000000    -4.059000000
O    -1.967000000    -4.698000000    -5.900000000
H    -1.028000000    -4.762000000    -6.072000000
H    -2.371000000    -5.253000000    -6.567000000
O     0.287000000    -2.712000000     4.532000000
H     0.622000000    -2.839000000     5.419000000
H    -0.652000000    -2.570000000     4.648000000
O     2.051000000     5.023000000    -1.612000000
H     2.070000000     5.957000000    -1.405000000
H     2.897000000     4.693000000    -1.311000000
O     7.292000000     2.225000000     2.238000000
H     7.296000000     2.665000000     1.388000000
H     6.539000000     1.636000000     2.200000000
O     4.885000000     0.388000000    -0.481000000
H     4.727000000    -0.389000000     0.054000000
H     5.475000000     0.087000000    -1.172000000
O    -2.983000000     2.461000000    -2.271000000
H    -2.929000000     2.195000000    -3.188000000
H    -2.218000000     3.021000000    -2.138000000
O    -5.124000000     2.972000000    -0.759000000
H    -5.098000000     2.393000000     0.003000000
H    -4.380000000     2.696000000    -1.294000000
O    -5.392000000     0.672000000    -5.085000000
H    -4.549000000     0.415000000    -4.710000000
H    -5.959000000     0.810000000    -4.326000000
O     1.957000000     3.579000000     1.437000000
H     1.540000000     3.217000000     2.219000000
H     1.340000000     3.395000000     0.729000000
O     4.619000000     4.406000000     2.039000000
H     4.690000000     5.094000000     1.377000000
H     3.715000000     4.098000000     1.968000000
O     4.450000000     1.395000000     2.021000000
H     4.236000000     2.328000000     2.053000000
H     4.155000000     1.111000000     1.156000000
O     6.231000000    -1.234000000     4.050000000
H     6.293000000    -2.167000000     4.256000000
H     5.411000000    -0.953000000     4.456000000
O    -4.898000000    -5.312000000    -3.567000000
H    -4.088000000    -4.953000000    -3.204000000
H    -4.926000000    -4.980000000    -4.464000000
O     2.859000000    -0.753000000    -5.656000000
H     3.805000000    -0.828000000    -5.774000000
H     2.752000000    -0.480000000    -4.745000000
O    -6.362000000    -3.220000000     1.214000000
H    -5.777000000    -3.271000000     0.458000000
H    -5.790000000    -3.353000000     1.969000000
O    -2.374000000    -3.261000000     3.816000000
H    -3.284000000    -3.219000000     4.109000000
H    -2.392000000    -3.853000000     3.064000000
O    -0.044000000    -5.277000000    -1.810000000
H     0.223000000    -4.437000000    -1.437000000
H    -0.761000000    -5.058000000    -2.405000000
O    -1.781000000     3.272000000     2.463000000
H    -1.544000000     3.512000000     1.567000000
H    -2.573000000     3.778000000     2.645000000
O     2.373000000    -1.123000000    -2.944000000
H     2.724000000    -1.899000000    -3.381000000
H     1.763000000    -1.470000000    -2.292000000
O    -2.196000000    -3.955000000    -3.073000000
H    -2.122000000    -3.004000000    -2.998000000
H    -1.974000000    -4.142000000    -3.986000000
O    -0.325000000     3.088000000     0.011000000
H    -0.688000000     3.401000000    -0.817000000
H    -0.432000000     2.138000000    -0.024000000
O     3.812000000     2.447000000     6.291000000
H     3.285000000     3.073000000     5.795000000
H     4.716000000     2.660000000     6.062000000
O     0.363000000     0.819000000     5.331000000
H     0.147000000     1.237000000     6.165000000
H     0.076000000    -0.088000000     5.437000000
O    -5.183000000    -2.788000000     4.317000000
H    -5.907000000    -3.207000000     4.781000000
H    -5.504000000    -1.909000000     4.116000000
O    -5.033000000    -2.095000000    -2.922000000
H    -4.079000000    -2.049000000    -2.860000000
H    -5.335000000    -1.241000000    -2.614000000
O     4.215000000    -2.255000000     0.867000000
H     3.638000000    -2.660000000     0.220000000
H     3.634000000    -2.015000000     1.589000000
O    -5.061000000    -4.521000000    -6.056000000
H    -4.629000000    -3.691000000    -6.259000000
H    -4.827000000    -5.096000000    -6.785000000
O    -0.572000000     4.612000000    -2.372000000
H     0.384000000     4.581000000    -2.354000000
H    -0.777000000     5.328000000    -2.974000000
O     1.522000000    -2.629000000    -0.258000000
H     1.092000000    -1.775000000    -0.281000000
H     1.012000000    -3.137000000     0.374000000
O    -2.231000000    -5.372000000     2.060000000
H    -2.913000000    -4.852000000     1.634000000
H    -2.612000000    -6.246000000     2.141000000
O    -6.547000000     0.815000000    -2.548000000
H    -6.318000000     0.582000000    -1.649000000
H    -7.468000000     0.568000000    -2.633000000
O     2.834000000    -2.059000000     3.077000000
H     1.907000000    -2.004000000     3.309000000
H     3.224000000    -1.274000000     3.461000000
O     2.215000000     4.354000000     5.351000000
H     2.359000000     5.182000000     4.893000000
H     1.748000000     3.808000000     4.719000000
O     0.575000000     2.876000000     3.665000000
H     0.481000000     2.181000000     4.316000000
H    -0.243000000     2.851000000     3.168000000
O     6.880000000    -1.548000000     1.283000000
H     6.839000000    -1.245000000     2.190000000
H     6.010000000    -1.909000000     1.112000000
O     0.048000000    -3.886000000     1.932000000
H    -0.607000000    -4.581000000     1.879000000
H    -0.147000000    -3.434000000     2.753000000
