158
-3009.01426
C    -1.228000000     0.669000000    -0.439000000
H    -2.239000000     1.028000000    -0.613000000
C    -1.103000000    -0.496000000     0.396000000
H    -1.889000000    -1.089000000     0.857000000
C     0.107000000    -1.081000000     0.587000000
H     0.164000000    -2.012000000     1.252000000
C     1.232000000    -0.411000000     0.128000000
H     2.211000000    -0.825000000     0.355000000
C     1.114000000     0.788000000    -0.647000000
H     2.048000000     1.291000000    -0.886000000
C    -0.148000000     1.307000000    -0.994000000
C    -0.309000000     2.669000000    -1.708000000
O     0.658000000     3.314000000    -1.970000000
O    -1.431000000     3.163000000    -1.670000000
O    -0.527000000    -3.063000000    -1.496000000
H     0.316000000    -3.028000000    -1.043000000
H    -0.638000000    -3.987000000    -1.723000000
O     4.381000000    -1.781000000    -0.911000000
H     4.030000000    -2.636000000    -1.160000000
H     4.002000000    -1.173000000    -1.545000000
O    -1.936000000    -4.365000000     0.377000000
H    -2.423000000    -4.585000000    -0.416000000
H    -1.548000000    -3.510000000     0.191000000
O    -4.563000000     5.607000000     0.249000000
H    -4.533000000     5.851000000    -0.677000000
H    -3.991000000     4.842000000     0.313000000
O    -3.283000000     2.122000000    -6.448000000
H    -3.966000000     2.619000000    -6.900000000
H    -3.057000000     2.661000000    -5.690000000
O    -3.058000000    -1.408000000     5.196000000
H    -3.299000000    -0.651000000     4.662000000
H    -2.192000000    -1.661000000     4.876000000
O    -1.953000000     4.930000000     3.169000000
H    -2.242000000     4.501000000     2.364000000
H    -2.763000000     5.212000000     3.595000000
O     0.764000000     4.208000000     2.252000000
H     0.880000000     3.261000000     2.168000000
H    -0.128000000     4.312000000     2.583000000
O    -5.801000000    -2.627000000     1.908000000
H    -5.702000000    -1.764000000     2.309000000
H    -5.115000000    -3.159000000     2.312000000
O    -0.223000000     6.000000000    -1.452000000
H    -0.994000000     6.283000000    -1.943000000
H    -0.138000000     5.069000000    -1.656000000
O    -0.245000000     2.753000000    -6.302000000
H    -0.312000000     2.094000000    -5.612000000
H    -0.714000000     2.372000000    -7.044000000
O     0.451000000     1.410000000     2.547000000
H     0.425000000     0.629000000     1.994000000
H    -0.296000000     1.310000000     3.137000000
O    -3.421000000    -4.177000000     2.648000000
H    -2.950000000    -4.136000000     1.815000000
H    -2.768000000    -3.935000000     3.304000000
O    -4.390000000     5.033000000    -5.197000000
H    -3.782000000     4.400000000    -4.816000000
H    -5.089000000     5.114000000    -4.548000000
O     1.459000000     6.880000000    -4.626000000
H     0.803000000     6.260000000    -4.308000000
H     1.808000000     7.288000000    -3.834000000
O    -2.697000000    -0.477000000    -5.505000000
H    -2.499000000    -0.520000000    -4.569000000
H    -2.743000000     0.460000000    -5.697000000
O     2.353000000     3.842000000    -0.100000000
H     1.706000000     4.023000000     0.581000000
H     1.844000000     3.471000000    -0.821000000
O     5.328000000     1.300000000    -2.825000000
H     4.623000000     0.655000000    -2.770000000
H     5.243000000     1.674000000    -3.703000000
O    -0.434000000     4.753000000    -4.323000000
H    -0.255000000     4.111000000    -3.636000000
H    -0.443000000     4.242000000    -5.132000000
O    -4.355000000     0.952000000    -2.628000000
H    -4.344000000     0.000000000    -2.730000000
H    -4.832000000     1.100000000    -1.812000000
O     1.679000000    -2.616000000     3.499000000
H     2.125000000    -2.835000000     2.681000000
H     2.124000000    -1.827000000     3.810000000
O    -2.172000000    -7.024000000     2.017000000
H    -2.815000000    -7.654000000     2.341000000
H    -2.692000000    -6.266000000     1.750000000
O     6.538000000     0.741000000     1.890000000
H     6.917000000     0.843000000     1.017000000
H     5.962000000    -0.020000000     1.814000000
O     2.923000000     4.280000000    -3.570000000
H     2.422000000     4.137000000    -2.767000000
H     2.411000000     4.922000000    -4.061000000
O     2.421000000    -6.698000000    -0.818000000
H     1.537000000    -6.946000000    -0.547000000
H     2.997000000    -7.161000000    -0.210000000
O     4.116000000    -0.749000000     4.234000000
H     4.475000000    -1.141000000     5.030000000
H     4.532000000    -1.233000000     3.520000000
O    -3.823000000     1.658000000     2.824000000
H    -4.306000000     2.342000000     3.289000000
H    -3.051000000     1.499000000     3.367000000
O     4.776000000     2.871000000    -5.002000000
H     4.145000000     3.480000000    -4.616000000
H     4.331000000     2.524000000    -5.775000000
O     1.856000000    -5.199000000     4.394000000
H     1.726000000    -4.269000000     4.209000000
H     0.975000000    -5.573000000     4.365000000
O     2.997000000     6.643000000     0.234000000
H     3.140000000     5.708000000     0.092000000
H     2.095000000     6.703000000     0.548000000
O    -0.263000000     0.731000000    -4.234000000
H    -0.793000000     0.331000000    -3.545000000
H     0.305000000     0.023000000    -4.540000000
O     0.269000000     7.315000000     0.870000000
H    -0.501000000     7.330000000     1.439000000
H     0.008000000     6.771000000     0.127000000
O     5.013000000     4.214000000    -1.096000000
H     4.131000000     3.975000000    -0.812000000
H     5.395000000     3.393000000    -1.406000000
O    -2.842000000     3.622000000     0.734000000
H    -2.364000000     3.575000000    -0.094000000
H    -2.878000000     2.716000000     1.042000000
O     5.575000000    -1.732000000     1.671000000
H     5.849000000    -2.648000000     1.635000000
H     5.333000000    -1.520000000     0.769000000
O    -0.764000000    -6.772000000     4.537000000
H    -1.151000000    -7.022000000     3.698000000
H    -1.058000000    -5.872000000     4.677000000
O    -5.752000000    -0.201000000     3.204000000
H    -6.638000000     0.156000000     3.253000000
H    -5.209000000     0.541000000     2.936000000
O    -1.588000000    -1.100000000    -2.986000000
H    -2.442000000    -1.358000000    -2.639000000
H    -0.966000000    -1.683000000    -2.550000000
O     3.808000000    -6.339000000     3.156000000
H     3.139000000    -5.707000000     3.418000000
H     4.599000000    -5.813000000     3.033000000
O     3.613000000    -4.322000000    -1.523000000
H     3.114000000    -5.098000000    -1.271000000
H     4.342000000    -4.663000000    -2.042000000
O     2.764000000    -3.594000000     1.219000000
H     3.623000000    -3.885000000     1.525000000
H     2.844000000    -3.574000000     0.265000000
O    -5.779000000     1.339000000    -0.413000000
H    -6.126000000     0.950000000     0.389000000
H    -6.235000000     2.177000000    -0.490000000
O     2.723000000     1.685000000     4.141000000
H     3.204000000     0.864000000     4.041000000
H     1.964000000     1.590000000     3.566000000
O    -3.040000000     2.900000000    -3.929000000
H    -2.349000000     2.812000000    -3.273000000
H    -3.741000000     2.328000000    -3.617000000
O    -4.349000000    -1.979000000    -2.731000000
H    -5.274000000    -2.210000000    -2.819000000
H    -3.889000000    -2.818000000    -2.757000000
O    -3.353000000     5.469000000    -2.191000000
H    -2.794000000     4.767000000    -2.524000000
H    -4.215000000     5.287000000    -2.564000000
O    -1.110000000    -3.245000000     4.007000000
H    -0.913000000    -3.607000000     4.871000000
H    -0.255000000    -3.009000000     3.646000000
O     0.293000000    -7.612000000     0.676000000
H    -0.440000000    -7.187000000     1.121000000
H     0.652000000    -8.215000000     1.326000000
