158
-3049.93141
C    -0.647000000    -1.232000000    -0.336000000
H    -1.184000000    -2.172000000    -0.444000000
C     0.139000000    -1.016000000     0.796000000
H     0.377000000    -1.859000000     1.439000000
C     0.732000000     0.226000000     1.016000000
H     1.251000000     0.495000000     1.901000000
C     0.526000000     1.221000000     0.043000000
H     0.834000000     2.247000000     0.227000000
C    -0.198000000     0.961000000    -1.124000000
H    -0.267000000     1.789000000    -1.825000000
C    -0.830000000    -0.240000000    -1.277000000
C    -1.725000000    -0.495000000    -2.514000000
O    -1.843000000     0.403000000    -3.348000000
O    -2.180000000    -1.544000000    -2.814000000
O     4.593000000     1.715000000    -2.321000000
H     4.282000000     0.858000000    -2.029000000
H     4.505000000     1.689000000    -3.274000000
O    -2.707000000     0.253000000     1.679000000
H    -2.998000000    -0.500000000     1.163000000
H    -2.580000000    -0.095000000     2.561000000
O     1.029000000    -2.180000000    -6.754000000
H     1.863000000    -2.498000000    -6.408000000
H     0.562000000    -1.850000000    -5.986000000
O     3.512000000     2.444000000     4.608000000
H     4.283000000     2.976000000     4.413000000
H     2.865000000     2.713000000     3.956000000
O     4.403000000     1.379000000     0.728000000
H     5.065000000     1.368000000     1.419000000
H     4.109000000     2.289000000     0.693000000
O    -5.133000000    -4.970000000    -3.320000000
H    -4.793000000    -4.462000000    -2.583000000
H    -5.478000000    -4.313000000    -3.925000000
O     2.769000000    -0.240000000     3.798000000
H     2.900000000     0.695000000     3.953000000
H     3.623000000    -0.555000000     3.501000000
O     3.538000000    -2.463000000    -2.116000000
H     3.592000000    -3.042000000    -1.355000000
H     3.687000000    -1.587000000    -1.762000000
O     1.207000000    -3.233000000    -3.269000000
H     0.651000000    -3.625000000    -2.595000000
H     1.875000000    -2.753000000    -2.779000000
O    -2.054000000    -6.431000000     0.398000000
H    -1.966000000    -6.927000000    -0.416000000
H    -2.762000000    -5.810000000     0.225000000
O    -0.659000000     2.593000000     4.200000000
H    -0.852000000     3.122000000     3.426000000
H    -1.474000000     2.598000000     4.703000000
O     2.176000000     0.169000000    -3.631000000
H     2.497000000    -0.594000000    -4.110000000
H     2.485000000     0.037000000    -2.735000000
O    -5.665000000     0.139000000     0.115000000
H    -4.885000000     0.676000000     0.252000000
H    -5.733000000    -0.391000000     0.909000000
O     0.119000000    -2.257000000     4.710000000
H    -0.493000000    -2.465000000     5.416000000
H    -0.288000000    -1.525000000     4.247000000
O     4.316000000     4.584000000     2.859000000
H     3.407000000     4.662000000     3.150000000
H     4.253000000     4.424000000     1.918000000
O     1.661000000     3.136000000     2.685000000
H     0.877000000     2.710000000     3.030000000
H     1.330000000     3.763000000     2.042000000
O    -4.034000000    -4.453000000     0.310000000
H    -3.895000000    -3.963000000    -0.501000000
H    -3.997000000    -3.791000000     1.000000000
O     3.721000000     4.070000000     0.222000000
H     3.093000000     4.315000000    -0.457000000
H     4.570000000     4.085000000    -0.220000000
O     6.364000000     1.292000000     2.652000000
H     6.463000000     1.489000000     3.583000000
H     6.663000000     2.084000000     2.206000000
O    -1.074000000    -3.013000000    -4.841000000
H    -1.341000000    -2.443000000    -4.120000000
H    -0.240000000    -3.386000000    -4.555000000
O    -3.679000000    -2.409000000     2.153000000
H    -4.541000000    -2.404000000     2.570000000
H    -3.078000000    -2.670000000     2.850000000
O    -1.850000000    -0.054000000     4.363000000
H    -1.082000000     0.517000000     4.352000000
H    -2.158000000    -0.025000000     5.269000000
O     0.231000000    -6.078000000     3.537000000
H     0.663000000    -5.247000000     3.734000000
H     0.841000000    -6.746000000     3.851000000
O    -2.684000000    -2.995000000    -6.827000000
H    -2.030000000    -3.118000000    -6.140000000
H    -2.423000000    -3.604000000    -7.518000000
O    -3.077000000     5.678000000    -3.646000000
H    -2.777000000     4.792000000    -3.442000000
H    -3.344000000     5.636000000    -4.564000000
O     1.095000000     2.484000000     6.696000000
H     1.935000000     2.768000000     6.335000000
H     0.533000000     2.365000000     5.930000000
O     1.485000000     3.986000000    -5.423000000
H     0.664000000     4.191000000    -4.976000000
H     1.214000000     3.617000000    -6.264000000
O    -5.443000000    -3.307000000    -5.725000000
H    -5.825000000    -3.138000000    -6.586000000
H    -4.531000000    -3.028000000    -5.808000000
O    -3.481000000    -0.603000000    -5.378000000
H    -2.914000000    -0.452000000    -4.621000000
H    -3.166000000    -1.426000000    -5.752000000
O    -2.825000000     2.705000000     0.484000000
H    -2.488000000     1.872000000     0.813000000
H    -3.609000000     2.870000000     1.007000000
O     5.315000000     0.901000000     6.251000000
H     4.799000000     1.377000000     5.600000000
H     4.693000000     0.296000000     6.654000000
O     0.920000000     4.678000000    -0.612000000
H     1.047000000     4.249000000    -1.458000000
H     1.097000000     5.603000000    -0.784000000
O    -4.253000000    -2.749000000    -1.926000000
H    -3.610000000    -2.226000000    -2.406000000
H    -5.031000000    -2.192000000    -1.884000000
O    -1.353000000    -4.435000000    -2.021000000
H    -1.732000000    -5.024000000    -2.674000000
H    -2.015000000    -3.754000000    -1.901000000
O    -2.715000000    -6.159000000    -3.596000000
H    -3.542000000    -5.700000000    -3.454000000
H    -2.530000000    -6.037000000    -4.527000000
O     1.766000000    -3.808000000     2.981000000
H     1.538000000    -3.197000000     3.682000000
H     1.107000000    -3.651000000     2.303000000
O     1.115000000    -6.178000000    -2.019000000
H     0.296000000    -6.454000000    -2.430000000
H     0.841000000    -5.639000000    -1.277000000
O     2.081000000     3.286000000    -2.625000000
H     1.879000000     3.417000000    -3.552000000
H     1.933000000     2.352000000    -2.478000000
O     3.044000000     0.088000000    -1.143000000
H     3.562000000     0.625000000    -0.544000000
H     2.147000000     0.161000000    -0.817000000
O    -0.005000000    -0.001000000    -5.226000000
H     0.771000000     0.142000000    -4.684000000
H    -0.737000000     0.272000000    -4.673000000
O     5.585000000    -1.286000000     2.959000000
H     5.598000000    -1.695000000     2.093000000
H     5.980000000    -0.425000000     2.822000000
O     0.218000000    -4.631000000     0.113000000
H    -0.461000000    -4.182000000    -0.390000000
H    -0.254000000    -5.300000000     0.608000000
O    -2.122000000     3.110000000    -2.876000000
H    -2.005000000     2.260000000    -3.301000000
H    -2.126000000     2.911000000    -1.940000000
O     5.255000000    -2.350000000     5.466000000
H     5.326000000    -1.825000000     4.668000000
H     6.046000000    -2.890000000     5.468000000
O    -4.802000000     1.507000000    -5.838000000
H    -5.112000000     1.893000000    -5.018000000
H    -4.464000000     0.648000000    -5.586000000
O     4.081000000    -5.039000000     2.345000000
H     3.413000000    -4.502000000     2.770000000
H     4.177000000    -4.656000000     1.473000000
O    -0.829000000     4.094000000     1.905000000
H    -1.662000000     3.701000000     1.644000000
H    -0.477000000     4.466000000     1.096000000
O     2.424000000    -1.244000000     6.364000000
H     2.563000000    -1.094000000     5.429000000
H     2.242000000    -2.182000000     6.431000000
