158
-3010.49249
C    -0.119000000    -0.968000000    -1.115000000
H    -0.258000000    -1.762000000    -1.844000000
C     0.520000000    -1.230000000     0.082000000
H     1.062000000    -2.171000000     0.113000000
C     0.499000000    -0.266000000     1.062000000
H     0.921000000    -0.429000000     2.018000000
C    -0.116000000     0.972000000     0.910000000
H     0.027000000     1.808000000     1.590000000
C    -0.820000000     1.268000000    -0.312000000
H    -1.165000000     2.278000000    -0.519000000
C    -0.714000000     0.272000000    -1.282000000
C    -1.381000000     0.503000000    -2.633000000
O    -2.118000000     1.468000000    -2.825000000
O    -1.207000000    -0.230000000    -3.524000000
O    -4.378000000     1.630000000     0.891000000
H    -4.461000000     2.491000000     1.300000000
H    -3.900000000     1.105000000     1.533000000
O    -3.046000000    -1.918000000    -7.755000000
H    -3.592000000    -1.357000000    -8.307000000
H    -3.037000000    -1.480000000    -6.904000000
O     2.702000000    -1.333000000    -2.490000000
H     1.983000000    -1.474000000    -3.106000000
H     2.501000000    -0.494000000    -2.076000000
O    -5.840000000     2.547000000    -5.071000000
H    -5.726000000     1.893000000    -5.760000000
H    -6.585000000     2.229000000    -4.561000000
O     6.980000000    -1.522000000     2.046000000
H     6.828000000    -0.587000000     2.181000000
H     7.833000000    -1.566000000     1.614000000
O     3.985000000     4.050000000     0.412000000
H     4.109000000     4.487000000    -0.431000000
H     3.569000000     4.712000000     0.965000000
O     3.880000000     1.553000000     1.265000000
H     3.923000000     2.472000000     1.000000000
H     3.385000000     1.563000000     2.085000000
O     4.354000000     0.409000000     6.912000000
H     3.767000000     1.074000000     6.553000000
H     4.682000000    -0.060000000     6.145000000
O    -0.557000000     5.363000000    -5.558000000
H    -1.209000000     5.759000000    -4.979000000
H    -0.715000000     4.422000000    -5.489000000
O     2.229000000     1.065000000    -1.067000000
H     1.458000000     0.783000000    -0.574000000
H     2.769000000     1.526000000    -0.424000000
O    -5.172000000    -2.736000000     0.486000000
H    -4.390000000    -2.185000000     0.506000000
H    -5.614000000    -2.494000000    -0.328000000
O    -5.950000000     1.139000000    -1.060000000
H    -6.464000000     0.453000000    -0.634000000
H    -5.313000000     1.406000000    -0.397000000
O     2.344000000     1.555000000     3.805000000
H     1.403000000     1.661000000     3.948000000
H     2.742000000     1.782000000     4.645000000
O    -2.581000000    -3.944000000     3.014000000
H    -2.212000000    -3.670000000     2.175000000
H    -2.632000000    -3.138000000     3.528000000
O     1.658000000     4.912000000     4.831000000
H     1.978000000     5.234000000     3.988000000
H     0.718000000     4.786000000     4.697000000
O    -2.528000000    -1.707000000     0.822000000
H    -2.095000000    -1.143000000     0.181000000
H    -2.368000000    -1.279000000     1.664000000
O     2.284000000     6.042000000     1.967000000
H     2.280000000     6.981000000     2.151000000
H     1.365000000     5.824000000     1.815000000
O     1.440000000     2.110000000    -3.487000000
H     1.808000000     1.649000000    -2.733000000
H     0.612000000     2.468000000    -3.168000000
O    -2.379000000    -0.529000000     3.303000000
H    -3.112000000    -0.230000000     3.840000000
H    -1.658000000    -0.640000000     3.923000000
O    -1.029000000    -3.893000000    -5.397000000
H    -1.907000000    -3.516000000    -5.450000000
H    -0.927000000    -4.137000000    -4.477000000
O     4.529000000    -0.253000000    -4.395000000
H     3.821000000    -0.533000000    -3.815000000
H     5.100000000    -1.018000000    -4.463000000
O    -2.746000000     5.799000000    -3.827000000
H    -2.827000000     4.901000000    -3.509000000
H    -3.422000000     5.877000000    -4.500000000
O     3.349000000     2.916000000     5.960000000
H     2.532000000     3.410000000     6.028000000
H     4.034000000     3.561000000     6.138000000
O     0.555000000    -1.915000000    -4.367000000
H     0.051000000    -2.534000000    -4.894000000
H    -0.096000000    -1.296000000    -4.035000000
O    -0.434000000    -2.165000000     5.282000000
H     0.273000000    -2.194000000     4.637000000
H    -0.254000000    -2.901000000     5.867000000
O    -2.900000000    -0.467000000    -5.437000000
H    -2.135000000    -0.468000000    -4.861000000
H    -3.642000000    -0.614000000    -4.850000000
O     2.248000000     1.902000000    -6.127000000
H     2.936000000     1.236000000    -6.104000000
H     1.955000000     1.974000000    -5.218000000
O    -3.113000000     4.428000000     0.549000000
H    -3.832000000     4.525000000     1.173000000
H    -3.545000000     4.292000000    -0.295000000
O    -0.646000000     6.523000000    -2.507000000
H    -1.369000000     6.465000000    -3.131000000
H    -0.709000000     5.719000000    -1.991000000
O    -5.742000000    -1.583000000    -5.277000000
H    -5.660000000    -1.002000000    -6.033000000
H    -5.470000000    -1.047000000    -4.532000000
O    -0.983000000     2.600000000    -5.232000000
H    -0.305000000     1.975000000    -4.975000000
H    -1.638000000     2.543000000    -4.536000000
O    -4.438000000     0.081000000    -2.991000000
H    -3.639000000     0.607000000    -3.006000000
H    -4.962000000     0.460000000    -2.285000000
O     5.896000000    -3.801000000    -0.128000000
H     5.608000000    -3.561000000    -1.009000000
H     5.470000000    -3.164000000     0.445000000
O     2.218000000    -2.289000000     7.186000000
H     3.074000000    -2.474000000     7.574000000
H     2.413000000    -1.740000000     6.427000000
O    -1.262000000    -5.189000000    -2.530000000
H    -1.422000000    -5.247000000    -1.588000000
H    -2.133000000    -5.091000000    -2.915000000
O     4.081000000    -3.419000000     5.275000000
H     4.635000000    -2.668000000     5.063000000
H     4.645000000    -3.993000000     5.793000000
O     2.051000000    -5.659000000     1.932000000
H     2.743000000    -6.293000000     1.742000000
H     1.996000000    -5.121000000     1.142000000
O    -0.267000000     4.622000000     1.288000000
H    -0.998000000     4.550000000     0.675000000
H     0.507000000     4.422000000     0.762000000
O     4.669000000    -0.923000000    -0.378000000
H     4.096000000    -0.962000000    -1.144000000
H     4.250000000    -0.288000000     0.203000000
O    -1.360000000     0.453000000     6.726000000
H    -2.195000000     0.238000000     6.311000000
H    -0.821000000    -0.327000000     6.598000000
O     1.415000000     4.219000000    -0.942000000
H     1.817000000     4.253000000    -1.810000000
H     2.141000000     4.362000000    -0.335000000
O     6.212000000     0.932000000     2.570000000
H     5.492000000     1.064000000     1.953000000
H     6.552000000     1.812000000     2.733000000
O     2.527000000    -4.464000000    -0.322000000
H     2.527000000    -3.875000000    -1.077000000
H     3.074000000    -5.201000000    -0.593000000
O    -3.901000000     3.595000000    -2.110000000
H    -3.184000000     2.962000000    -2.070000000
H    -4.672000000     3.070000000    -2.322000000
O     2.842000000    -3.630000000    -4.567000000
H     3.239000000    -3.324000000    -3.752000000
H     2.287000000    -2.904000000    -4.851000000
O     1.912000000    -2.840000000     3.633000000
H     2.576000000    -3.237000000     4.197000000
H     2.038000000    -3.260000000     2.782000000
O    -1.011000000     4.528000000     3.829000000
H    -1.958000000     4.579000000     3.693000000
H    -0.645000000     4.481000000     2.946000000
O     5.473000000    -1.165000000     4.615000000
H     6.428000000    -1.099000000     4.584000000
H     5.170000000    -0.576000000     3.924000000
