158
-3034.90373
C     0.582000000    -0.631000000    -1.183000000
H     1.250000000    -1.113000000    -1.892000000
C     1.091000000    -0.733000000     0.106000000
H     1.941000000    -1.374000000     0.323000000
C     0.418000000    -0.040000000     1.153000000
H     0.877000000    -0.079000000     2.113000000
C    -0.728000000     0.639000000     0.887000000
H    -1.324000000     0.972000000     1.733000000
C    -1.256000000     0.681000000    -0.400000000
H    -2.205000000     1.199000000    -0.508000000
C    -0.486000000     0.165000000    -1.487000000
C    -0.836000000     0.379000000    -2.981000000
O    -2.017000000     0.606000000    -3.245000000
O     0.086000000     0.419000000    -3.806000000
O    -4.438000000     2.017000000     2.071000000
H    -4.112000000     1.130000000     1.922000000
H    -4.566000000     2.070000000     3.018000000
O    -5.617000000    -1.411000000     3.181000000
H    -4.905000000    -1.146000000     2.599000000
H    -6.403000000    -1.033000000     2.786000000
O    -1.376000000     3.657000000     2.920000000
H    -1.424000000     3.918000000     3.840000000
H    -0.920000000     2.816000000     2.934000000
O     3.137000000     1.668000000    -3.791000000
H     2.789000000     0.783000000    -3.898000000
H     2.825000000     1.946000000    -2.930000000
O    -5.838000000    -0.198000000    -4.758000000
H    -4.955000000    -0.557000000    -4.850000000
H    -6.360000000    -0.928000000    -4.425000000
O    -3.753000000    -0.564000000     5.026000000
H    -3.978000000    -0.703000000     5.946000000
H    -4.348000000    -1.140000000     4.545000000
O    -4.001000000    -0.474000000    -1.484000000
H    -4.271000000    -1.344000000    -1.780000000
H    -3.169000000    -0.318000000    -1.931000000
O     4.276000000     2.437000000     0.353000000
H     5.152000000     2.128000000     0.122000000
H     4.423000000     3.288000000     0.766000000
O    -0.700000000     5.111000000    -5.632000000
H    -1.227000000     5.726000000    -5.121000000
H    -0.417000000     4.454000000    -4.997000000
O     2.366000000     2.978000000    -1.422000000
H     2.173000000     3.899000000    -1.247000000
H     2.919000000     2.705000000    -0.690000000
O    -3.619000000    -0.710000000     1.412000000
H    -2.885000000    -1.303000000     1.251000000
H    -3.991000000    -0.548000000     0.545000000
O     3.625000000    -0.108000000    -6.846000000
H     3.224000000     0.685000000    -7.201000000
H     3.236000000    -0.204000000    -5.977000000
O    -5.142000000     3.051000000    -0.280000000
H    -6.005000000     2.666000000    -0.433000000
H    -4.865000000     2.691000000     0.562000000
O     3.486000000     1.311000000     2.840000000
H     3.688000000     1.087000000     1.931000000
H     4.184000000     1.912000000     3.099000000
O    -2.883000000    -4.479000000     1.814000000
H    -2.475000000    -5.221000000     1.368000000
H    -2.323000000    -3.733000000     1.598000000
O     1.139000000     2.332000000     4.005000000
H     1.636000000     3.145000000     3.918000000
H     1.722000000     1.656000000     3.659000000
O    -1.340000000    -2.335000000     0.947000000
H    -1.343000000    -1.481000000     0.514000000
H    -0.467000000    -2.403000000     1.334000000
O     0.451000000     3.299000000    -3.577000000
H     0.069000000     2.541000000    -4.021000000
H     0.974000000     2.922000000    -2.870000000
O     0.722000000    -2.779000000     2.805000000
H     0.111000000    -2.464000000     3.472000000
H     1.579000000    -2.474000000     3.103000000
O    -1.897000000     1.085000000     3.996000000
H    -1.781000000     1.837000000     4.576000000
H    -2.587000000     0.567000000     4.410000000
O    -0.146000000    -2.923000000    -6.884000000
H    -0.034000000    -3.391000000    -6.057000000
H    -0.247000000    -2.006000000    -6.629000000
O    -2.956000000     5.210000000    -3.746000000
H    -3.002000000     4.282000000    -3.513000000
H    -3.689000000     5.342000000    -4.347000000
O     2.360000000    -0.845000000    -4.510000000
H     2.446000000    -1.781000000    -4.689000000
H     1.416000000    -0.701000000    -4.433000000
O    -1.168000000    -1.593000000     4.286000000
H    -1.738000000    -1.841000000     5.014000000
H    -1.448000000    -0.708000000     4.053000000
O    -4.468000000    -2.800000000    -2.991000000
H    -3.676000000    -2.707000000    -3.521000000
H    -4.712000000    -3.721000000    -3.086000000
O     2.327000000    -1.138000000     4.021000000
H     2.686000000    -0.391000000     3.541000000
H     2.920000000    -1.254000000     4.762000000
O     0.014000000    -0.369000000    -6.403000000
H     0.030000000     0.037000000    -5.536000000
H     0.314000000     0.320000000    -6.996000000
O     2.039000000     3.240000000    -6.150000000
H     2.266000000     2.851000000    -5.305000000
H     1.118000000     3.484000000    -6.061000000
O    -5.348000000     2.203000000    -6.668000000
H    -5.727000000     2.025000000    -7.529000000
H    -4.599000000     1.610000000    -6.609000000
O    -1.911000000     2.416000000    -5.312000000
H    -1.852000000     1.566000000    -4.876000000
H    -2.076000000     3.037000000    -4.603000000
O    -2.915000000     4.873000000     1.031000000
H    -2.459000000     4.372000000     1.707000000
H    -3.454000000     4.226000000     0.576000000
O    -2.253000000    -1.755000000    -4.799000000
H    -2.595000000    -1.563000000    -5.672000000
H    -1.991000000    -0.903000000    -4.452000000
O     4.665000000    -3.940000000    -1.105000000
H     5.136000000    -3.355000000    -0.511000000
H     4.702000000    -4.795000000    -0.677000000
O     3.493000000    -0.954000000     6.501000000
H     4.148000000    -1.625000000     6.691000000
H     2.677000000    -1.309000000     6.853000000
O    -0.957000000    -4.086000000    -4.337000000
H    -1.025000000    -4.157000000    -3.384000000
H    -1.527000000    -3.352000000    -4.564000000
O     5.540000000    -2.580000000     4.277000000
H     5.695000000    -1.812000000     3.727000000
H     5.659000000    -2.261000000     5.172000000
O     1.876000000    -4.329000000    -1.452000000
H     2.785000000    -4.098000000    -1.261000000
H     1.806000000    -5.251000000    -1.204000000
O     0.901000000     4.771000000     1.509000000
H    -0.008000000     4.474000000     1.548000000
H     1.056000000     4.946000000     0.581000000
O     5.481000000    -0.327000000    -1.635000000
H     6.078000000    -0.319000000    -2.384000000
H     4.607000000    -0.334000000    -2.026000000
O     0.065000000     0.932000000     6.195000000
H     0.256000000     0.009000000     6.032000000
H     0.242000000     1.365000000     5.359000000
O    -0.899000000    -3.633000000    -1.516000000
H     0.048000000    -3.564000000    -1.635000000
H    -1.060000000    -3.261000000    -0.650000000
O     4.970000000    -4.354000000     2.223000000
H     5.763000000    -4.857000000     2.409000000
H     4.971000000    -3.654000000     2.877000000
O     2.024000000    -3.568000000    -4.043000000
H     2.123000000    -3.974000000    -3.182000000
H     1.081000000    -3.579000000    -4.206000000
O     1.921000000     2.761000000     6.977000000
H     1.903000000     2.501000000     7.898000000
H     1.564000000     2.007000000     6.508000000
O    -3.447000000     2.689000000    -2.776000000
H    -2.886000000     1.969000000    -3.066000000
H    -3.976000000     2.312000000    -2.074000000
O     4.732000000    -4.012000000    -4.633000000
H     5.331000000    -3.850000000    -3.904000000
H     3.867000000    -4.058000000    -4.226000000
O     0.828000000    -5.436000000     3.567000000
H     0.699000000    -4.532000000     3.281000000
H     1.425000000    -5.809000000     2.919000000
O     2.392000000     4.933000000     3.973000000
H     2.561000000     5.819000000     4.293000000
H     1.930000000     5.061000000     3.144000000
