158
-3000.20950
C     0.912000000    -0.737000000    -0.940000000
H     1.606000000    -1.315000000    -1.546000000
C     1.220000000    -0.473000000     0.413000000
H     2.115000000    -0.874000000     0.883000000
C     0.297000000     0.202000000     1.174000000
H     0.449000000     0.268000000     2.271000000
C    -0.783000000     0.823000000     0.562000000
H    -1.427000000     1.468000000     1.155000000
C    -1.137000000     0.496000000    -0.740000000
H    -2.088000000     0.842000000    -1.136000000
C    -0.278000000    -0.246000000    -1.536000000
C    -0.711000000    -0.571000000    -2.979000000
O    -1.827000000    -0.289000000    -3.332000000
O     0.051000000    -1.165000000    -3.676000000
O     3.012000000    -4.358000000     6.107000000
H     2.909000000    -5.124000000     5.542000000
H     2.414000000    -3.707000000     5.738000000
O    -4.370000000     0.986000000     1.083000000
H    -3.896000000     0.968000000     1.914000000
H    -4.549000000     0.066000000     0.890000000
O    -0.544000000    -2.827000000    -8.601000000
H    -1.000000000    -1.989000000    -8.525000000
H    -0.159000000    -2.969000000    -7.737000000
O    -0.177000000     1.622000000     4.688000000
H    -0.099000000     1.063000000     5.461000000
H     0.570000000     1.380000000     4.141000000
O     4.999000000     0.710000000    -2.112000000
H     5.845000000     0.396000000    -1.794000000
H     4.549000000     1.022000000    -1.327000000
O    -3.121000000    -0.059000000     6.164000000
H    -2.950000000    -0.673000000     6.878000000
H    -2.763000000     0.774000000     6.473000000
O    -4.022000000    -1.385000000    -2.123000000
H    -3.155000000    -1.097000000    -2.410000000
H    -3.876000000    -2.258000000    -1.759000000
O    -6.530000000     2.847000000     1.557000000
H    -6.897000000     3.060000000     0.699000000
H    -5.607000000     2.662000000     1.385000000
O    -1.984000000    -2.995000000     3.437000000
H    -2.686000000    -3.472000000     2.995000000
H    -2.231000000    -2.074000000     3.354000000
O    -2.979000000    -4.164000000    -1.752000000
H    -3.450000000    -4.943000000    -2.047000000
H    -2.421000000    -3.926000000    -2.492000000
O    -1.307000000     3.191000000    -4.355000000
H    -1.668000000     2.461000000    -4.856000000
H    -0.419000000     3.300000000    -4.697000000
O     2.974000000     1.526000000    -0.569000000
H     3.037000000     2.320000000    -0.039000000
H     2.359000000     0.968000000    -0.091000000
O     0.078000000    -0.215000000     6.916000000
H     0.716000000     0.339000000     7.366000000
H    -0.633000000    -0.323000000     7.547000000
O    -6.445000000    -0.941000000    -1.331000000
H    -5.569000000    -1.060000000    -1.698000000
H    -6.366000000    -1.232000000    -0.423000000
O     4.813000000    -1.884000000    -5.929000000
H     3.974000000    -2.052000000    -6.358000000
H     4.714000000    -2.258000000    -5.053000000
O    -1.712000000     2.282000000    -7.950000000
H    -1.074000000     1.747000000    -8.423000000
H    -1.957000000     1.750000000    -7.194000000
O    -4.482000000     1.506000000    -1.520000000
H    -4.779000000     0.615000000    -1.703000000
H    -4.239000000     1.492000000    -0.594000000
O     4.294000000     2.109000000     2.276000000
H     4.848000000     1.567000000     1.715000000
H     4.036000000     2.845000000     1.721000000
O     4.352000000     0.079000000     5.335000000
H     3.510000000    -0.274000000     5.046000000
H     4.313000000     1.008000000     5.106000000
O     1.873000000     4.248000000    -3.510000000
H     2.133000000     4.792000000    -2.766000000
H     2.002000000     3.349000000    -3.206000000
O    -0.071000000    -4.111000000     0.874000000
H    -0.096000000    -3.155000000     0.925000000
H     0.828000000    -4.340000000     1.108000000
O     2.912000000     4.095000000     0.610000000
H     2.064000000     4.035000000     1.050000000
H     2.749000000     4.655000000    -0.149000000
O     2.585000000     1.334000000    -3.686000000
H     2.398000000     0.490000000    -4.096000000
H     2.933000000     1.108000000    -2.823000000
O     2.631000000    -3.462000000     2.549000000
H     2.098000000    -3.066000000     3.238000000
H     3.356000000    -2.849000000     2.425000000
O    -2.585000000     0.564000000     3.722000000
H    -1.686000000     0.855000000     3.871000000
H    -2.871000000     0.224000000     4.570000000
O     4.165000000    -4.744000000    -5.020000000
H     3.886000000    -4.790000000    -4.105000000
H     5.034000000    -5.144000000    -5.025000000
O     2.556000000    -1.148000000    -8.305000000
H     2.419000000    -1.223000000    -9.249000000
H     1.683000000    -1.256000000    -7.927000000
O    -1.224000000     5.290000000    -2.211000000
H    -1.688000000     4.927000000    -2.965000000
H    -1.143000000     6.223000000    -2.406000000
O     2.578000000    -1.650000000    -3.984000000
H     2.650000000    -2.513000000    -3.576000000
H     1.638000000    -1.523000000    -4.112000000
O     0.591000000    -3.359000000     4.757000000
H     0.392000000    -3.308000000     5.692000000
H    -0.265000000    -3.409000000     4.332000000
O     5.017000000    -1.606000000     3.096000000
H     5.918000000    -1.841000000     2.873000000
H     5.104000000    -0.967000000     3.804000000
O    -4.273000000    -2.581000000    -7.123000000
H    -5.118000000    -2.644000000    -7.569000000
H    -3.857000000    -1.809000000    -7.507000000
O     0.392000000    -1.088000000    -6.451000000
H     0.563000000    -1.423000000    -5.571000000
H    -0.174000000    -0.328000000    -6.312000000
O    -4.288000000    -3.786000000    -4.554000000
H    -4.237000000    -3.197000000    -3.801000000
H    -4.160000000    -3.217000000    -5.313000000
O    -0.854000000     6.366000000     2.141000000
H    -0.923000000     6.014000000     3.029000000
H    -1.314000000     7.204000000     2.180000000
O    -5.160000000     1.820000000    -6.648000000
H    -4.882000000     1.769000000    -5.734000000
H    -4.669000000     2.559000000    -7.007000000
O    -2.040000000     0.544000000    -5.941000000
H    -1.603000000     0.203000000    -5.160000000
H    -2.785000000    -0.042000000    -6.073000000
O    -3.834000000     3.313000000     3.916000000
H    -3.402000000     2.533000000     3.566000000
H    -3.114000000     3.882000000     4.190000000
O    -1.163000000    -3.806000000    -3.909000000
H    -1.577000000    -3.995000000    -4.751000000
H    -0.592000000    -3.058000000    -4.085000000
O    -1.356000000     4.098000000     4.272000000
H    -0.815000000     4.674000000     4.812000000
H    -0.988000000     3.225000000     4.410000000
O     0.356000000     3.729000000     1.716000000
H    -0.397000000     4.029000000     2.226000000
H     0.002000000     3.045000000     1.148000000
O     1.270000000    -0.718000000     4.658000000
H     1.008000000    -1.624000000     4.495000000
H     0.832000000    -0.485000000     5.476000000
O     0.181000000    -5.948000000    -1.315000000
H     0.683000000    -6.460000000    -0.682000000
H    -0.129000000    -5.190000000    -0.819000000
O    -2.186000000     4.369000000     0.188000000
H    -1.782000000     4.381000000    -0.680000000
H    -1.693000000     5.018000000     0.690000000
O     2.981000000    -4.155000000    -2.647000000
H     3.691000000    -4.227000000    -2.008000000
H     2.212000000    -4.494000000    -2.189000000
O    -4.103000000     1.076000000    -4.151000000
H    -3.328000000     0.628000000    -3.811000000
H    -4.512000000     1.466000000    -3.379000000
O     3.980000000     2.656000000     4.838000000
H     3.468000000     3.457000000     4.945000000
H     3.906000000     2.447000000     3.906000000
O    -4.272000000     4.528000000    -1.627000000
H    -3.542000000     4.531000000    -1.008000000
H    -4.419000000     3.602000000    -1.820000000
