158
-3019.02564
C     0.748000000    -0.947000000    -0.668000000
H     1.460000000    -1.675000000    -1.048000000
C     0.856000000    -0.667000000     0.643000000
H     1.615000000    -1.175000000     1.232000000
C     0.064000000     0.255000000     1.175000000
H     0.162000000     0.540000000     2.236000000
C    -0.868000000     0.921000000     0.407000000
H    -1.576000000     1.587000000     0.894000000
C    -0.928000000     0.710000000    -1.010000000
H    -1.642000000     1.213000000    -1.657000000
C    -0.057000000    -0.230000000    -1.575000000
C     0.086000000    -0.498000000    -3.056000000
O    -0.755000000    -0.119000000    -3.833000000
O     0.983000000    -1.175000000    -3.484000000
O    -4.362000000    -0.044000000     3.862000000
H    -5.208000000     0.389000000     3.979000000
H    -4.538000000    -0.752000000     3.243000000
O     0.150000000    -1.444000000    -8.105000000
H    -0.633000000    -0.910000000    -8.236000000
H     0.786000000    -0.844000000    -7.715000000
O    -4.465000000    -1.777000000     1.662000000
H    -4.743000000    -2.693000000     1.650000000
H    -3.575000000    -1.793000000     1.309000000
O    -1.707000000    -4.758000000     2.534000000
H    -1.445000000    -3.958000000     2.989000000
H    -2.379000000    -4.472000000     1.914000000
O     0.728000000     1.778000000     6.669000000
H     0.287000000     0.943000000     6.510000000
H     0.177000000     2.427000000     6.230000000
O    -3.299000000     3.291000000    -2.697000000
H    -3.499000000     3.786000000    -1.902000000
H    -2.834000000     3.914000000    -3.256000000
O     5.677000000    -0.896000000     0.178000000
H     4.930000000    -0.407000000    -0.168000000
H     5.307000000    -1.434000000     0.878000000
O    -2.514000000     1.833000000     6.831000000
H    -2.182000000     1.972000000     7.718000000
H    -2.576000000     0.881000000     6.746000000
O    -3.410000000    -0.655000000    -2.895000000
H    -2.774000000    -0.493000000    -3.592000000
H    -2.916000000    -1.123000000    -2.223000000
O    -1.816000000    -2.793000000    -2.082000000
H    -2.385000000    -3.562000000    -2.115000000
H    -0.945000000    -3.131000000    -2.291000000
O    -0.054000000     3.298000000    -3.701000000
H     0.142000000     3.233000000    -4.635000000
H    -0.540000000     2.498000000    -3.501000000
O     3.471000000     0.452000000    -0.931000000
H     3.329000000     1.393000000    -1.038000000
H     2.711000000     0.150000000    -0.434000000
O    -2.018000000    -2.100000000     0.771000000
H    -1.433000000    -1.645000000     1.378000000
H    -1.506000000    -2.188000000    -0.033000000
O     0.365000000    -5.196000000    -5.150000000
H     0.854000000    -5.879000000    -5.608000000
H     0.540000000    -4.399000000    -5.651000000
O    -5.814000000    -1.334000000    -0.930000000
H    -5.227000000    -0.595000000    -1.091000000
H    -5.428000000    -1.788000000    -0.181000000
O    -4.147000000     1.206000000     1.356000000
H    -3.999000000     2.073000000     1.735000000
H    -3.541000000     0.633000000     1.826000000
O     4.861000000     1.926000000     1.390000000
H     5.677000000     1.809000000     0.903000000
H     4.269000000     2.348000000     0.767000000
O     3.840000000     1.184000000     6.155000000
H     2.936000000     1.428000000     6.349000000
H     3.970000000     1.447000000     5.244000000
O    -0.418000000    -2.678000000     4.227000000
H    -0.902000000    -3.171000000     4.890000000
H     0.309000000    -3.252000000     3.985000000
O     3.030000000     3.256000000    -0.862000000
H     2.398000000     3.680000000    -0.280000000
H     3.582000000     3.972000000    -1.177000000
O     0.498000000     2.599000000    -6.498000000
H     0.869000000     3.467000000    -6.653000000
H    -0.329000000     2.602000000    -6.980000000
O     4.971000000     0.036000000    -3.094000000
H     4.556000000    -0.806000000    -3.281000000
H     4.689000000     0.251000000    -2.205000000
O    -4.453000000     2.872000000     5.437000000
H    -3.864000000     2.429000000     6.048000000
H    -4.121000000     2.637000000     4.571000000
O     3.762000000    -5.730000000    -3.737000000
H     3.379000000    -5.248000000    -3.004000000
H     4.622000000    -6.005000000    -3.420000000
O     1.752000000    -2.776000000    -6.269000000
H     1.241000000    -2.135000000    -6.763000000
H     1.741000000    -2.450000000    -5.369000000
O     0.344000000     6.033000000    -2.586000000
H     0.389000000     5.093000000    -2.760000000
H    -0.007000000     6.409000000    -3.394000000
O     3.666000000    -2.233000000    -3.219000000
H     3.529000000    -2.993000000    -2.653000000
H     2.896000000    -1.683000000    -3.072000000
O     1.488000000    -1.268000000     8.116000000
H     0.921000000    -0.941000000     7.418000000
H     2.374000000    -1.053000000     7.824000000
O     4.254000000    -0.601000000    -6.145000000
H     3.357000000    -0.930000000    -6.202000000
H     4.347000000    -0.316000000    -5.236000000
O     1.376000000    -0.061000000    -6.287000000
H     0.921000000    -0.475000000    -5.554000000
H     1.337000000     0.876000000    -6.094000000
O    -4.788000000    -2.244000000    -4.568000000
H    -4.364000000    -1.611000000    -3.988000000
H    -4.823000000    -1.803000000    -5.417000000
O    -4.589000000     2.411000000    -4.977000000
H    -3.937000000     1.729000000    -5.141000000
H    -4.303000000     2.825000000    -4.163000000
O    -2.573000000     0.485000000    -5.698000000
H    -1.903000000     0.268000000    -5.050000000
H    -2.133000000     0.380000000    -6.542000000
O     0.558000000    -3.811000000    -2.785000000
H     0.638000000    -4.283000000    -3.614000000
H     0.754000000    -2.901000000    -3.008000000
O     1.582000000     4.223000000     1.068000000
H     1.436000000     3.465000000     1.634000000
H     1.459000000     4.978000000     1.643000000
O     4.514000000    -2.478000000     1.991000000
H     4.515000000    -3.320000000     2.446000000
H     4.161000000    -1.860000000     2.631000000
O    -2.843000000     3.890000000     2.843000000
H    -2.366000000     4.243000000     2.092000000
H    -2.177000000     3.788000000     3.523000000
O     0.962000000    -5.721000000    -0.976000000
H     1.369000000    -5.401000000    -0.171000000
H     0.631000000    -4.933000000    -1.407000000
O     0.795000000     2.779000000     3.398000000
H     1.325000000     2.060000000     3.742000000
H     0.287000000     3.084000000     4.150000000
O    -0.420000000    -0.657000000     6.062000000
H    -1.253000000    -1.023000000     6.358000000
H    -0.260000000    -1.079000000     5.217000000
O     2.157000000    -4.390000000     1.104000000
H     2.770000000    -3.727000000     1.422000000
H     1.797000000    -4.785000000     1.898000000
O     3.695000000    -4.055000000    -0.964000000
H     4.304000000    -3.748000000    -0.292000000
H     2.989000000    -4.477000000    -0.474000000
O    -3.318000000    -1.089000000     6.235000000
H    -3.726000000    -0.750000000     5.438000000
H    -4.012000000    -1.587000000     6.667000000
O    -5.232000000     1.537000000    -1.239000000
H    -4.496000000     1.421000000    -1.839000000
H    -4.826000000     1.620000000    -0.376000000
O     1.530000000    -4.398000000     3.923000000
H     1.392000000    -5.345000000     3.907000000
H     2.437000000    -4.293000000     4.209000000
O     3.860000000     2.399000000     3.882000000
H     3.453000000     3.261000000     3.970000000
H     4.234000000     2.399000000     3.001000000
O    -3.895000000     5.046000000    -0.660000000
H    -3.265000000     5.763000000    -0.583000000
H    -4.750000000     5.468000000    -0.577000000
O    -1.183000000     3.542000000     5.332000000
H    -1.345000000     4.337000000     5.839000000
H    -1.564000000     2.840000000     5.859000000
