158
-3026.90258
C     0.311000000    -1.403000000    -0.326000000
H     0.458000000    -2.480000000    -0.364000000
C     0.655000000    -0.722000000     0.856000000
H     1.183000000    -1.242000000     1.651000000
C     0.326000000     0.613000000     0.990000000
H     0.584000000     1.056000000     1.982000000
C    -0.292000000     1.241000000    -0.032000000
H    -0.461000000     2.293000000     0.183000000
C    -0.725000000     0.576000000    -1.144000000
H    -1.294000000     1.144000000    -1.875000000
C    -0.402000000    -0.807000000    -1.337000000
C    -0.867000000    -1.495000000    -2.598000000
O    -1.749000000    -0.932000000    -3.202000000
O    -0.501000000    -2.631000000    -2.896000000
O    -0.003000000     5.814000000    -1.605000000
H    -0.316000000     6.658000000    -1.933000000
H    -0.149000000     5.856000000    -0.660000000
O    -3.575000000     2.821000000    -1.921000000
H    -3.671000000     2.391000000    -1.072000000
H    -3.133000000     3.647000000    -1.723000000
O     4.670000000     0.020000000     2.032000000
H     5.420000000     0.176000000     1.458000000
H     3.914000000     0.314000000     1.524000000
O     3.466000000     5.092000000    -2.166000000
H     3.069000000     4.510000000    -1.518000000
H     3.793000000     5.832000000    -1.654000000
O    -3.926000000    -2.273000000    -2.390000000
H    -3.148000000    -1.836000000    -2.736000000
H    -3.761000000    -2.349000000    -1.451000000
O    -2.902000000    -4.845000000    -0.321000000
H    -2.825000000    -4.635000000    -1.252000000
H    -2.034000000    -5.165000000    -0.075000000
O     2.980000000     6.506000000     2.939000000
H     3.850000000     6.361000000     3.311000000
H     2.425000000     5.856000000     3.368000000
O     4.894000000     2.160000000    -0.140000000
H     4.395000000     1.907000000    -0.918000000
H     4.554000000     3.024000000     0.091000000
O     1.892000000    -4.124000000    -6.416000000
H     2.291000000    -4.762000000    -5.824000000
H     1.018000000    -3.976000000    -6.055000000
O    -2.526000000     1.461000000    -4.106000000
H    -2.287000000     0.613000000    -3.731000000
H    -2.327000000     2.093000000    -3.415000000
O     2.567000000     0.521000000    -1.241000000
H     1.998000000     0.703000000    -1.989000000
H     1.978000000     0.518000000    -0.487000000
O    -2.791000000    -1.889000000     0.616000000
H    -2.731000000    -2.736000000     1.058000000
H    -1.883000000    -1.654000000     0.423000000
O    -2.637000000    -5.713000000    -5.285000000
H    -2.539000000    -5.354000000    -6.167000000
H    -3.488000000    -5.390000000    -4.988000000
O     4.065000000    -2.857000000    -5.076000000
H     3.421000000    -3.249000000    -5.667000000
H     3.540000000    -2.422000000    -4.405000000
O    -4.806000000     0.122000000     0.625000000
H    -4.322000000     0.947000000     0.580000000
H    -4.160000000    -0.518000000     0.924000000
O     3.321000000     3.639000000     1.875000000
H     2.495000000     3.857000000     1.442000000
H     3.709000000     4.487000000     2.092000000
O    -0.159000000    -0.795000000     4.816000000
H    -0.998000000    -0.379000000     5.012000000
H     0.165000000    -0.329000000     4.045000000
O     1.717000000     2.020000000    -3.968000000
H     2.537000000     2.494000000    -4.105000000
H     1.714000000     1.345000000    -4.646000000
O     1.611000000     3.988000000    -0.559000000
H     0.920000000     3.417000000    -0.222000000
H     1.146000000     4.655000000    -1.064000000
O    -0.805000000     2.252000000    -6.304000000
H    -1.439000000     2.527000000    -6.966000000
H    -1.332000000     2.080000000    -5.524000000
O     4.732000000    -1.024000000    -2.118000000
H     4.356000000    -1.720000000    -2.658000000
H     3.975000000    -0.607000000    -1.705000000
O    -0.497000000    -3.164000000    -5.589000000
H    -0.482000000    -2.241000000    -5.842000000
H    -0.370000000    -3.155000000    -4.640000000
O    -2.207000000     5.115000000    -4.543000000
H    -1.639000000     4.442000000    -4.169000000
H    -1.656000000     5.564000000    -5.185000000
O     2.249000000     0.693000000     7.304000000
H     2.386000000     0.808000000     6.364000000
H     1.339000000     0.952000000     7.448000000
O     2.305000000    -2.478000000    -2.601000000
H     2.636000000    -3.171000000    -2.029000000
H     1.356000000    -2.598000000    -2.598000000
O     1.505000000    -5.150000000     2.545000000
H     2.047000000    -5.645000000     3.159000000
H     1.685000000    -4.233000000     2.753000000
O     1.946000000    -2.540000000     3.970000000
H     2.728000000    -2.025000000     4.173000000
H     1.246000000    -2.118000000     4.468000000
O     1.504000000     0.443000000    -6.199000000
H     1.627000000    -0.286000000    -6.807000000
H     0.582000000     0.681000000    -6.294000000
O    -0.754000000     5.833000000     0.906000000
H    -1.266000000     6.214000000     1.619000000
H    -0.293000000     5.097000000     1.308000000
O    -5.174000000     1.837000000    -4.982000000
H    -5.162000000     1.333000000    -5.796000000
H    -4.303000000     1.706000000    -4.606000000
O    -2.855000000    -0.674000000    -5.841000000
H    -2.693000000    -1.079000000    -4.989000000
H    -2.794000000     0.267000000    -5.674000000
O     2.251000000     4.490000000     5.027000000
H     1.500000000     4.856000000     5.495000000
H     3.009000000     4.931000000     5.410000000
O    -0.952000000    -5.399000000    -3.047000000
H    -1.482000000    -5.343000000    -3.842000000
H    -0.797000000    -4.488000000    -2.798000000
O     0.149000000     3.754000000     2.720000000
H     0.950000000     3.409000000     3.113000000
H    -0.244000000     4.291000000     3.408000000
O    -3.588000000     2.439000000     0.664000000
H    -3.896000000     3.335000000     0.803000000
H    -2.806000000     2.367000000     1.212000000
O    -0.145000000    -5.677000000    -0.411000000
H     0.538000000    -5.006000000    -0.416000000
H    -0.411000000    -5.755000000    -1.327000000
O    -0.324000000    -2.197000000     7.054000000
H    -0.276000000    -1.693000000     6.242000000
H     0.256000000    -2.944000000     6.907000000
O    -1.108000000     3.647000000     5.676000000
H    -0.981000000     2.710000000     5.823000000
H    -2.032000000     3.798000000     5.875000000
O    -2.808000000     0.315000000     5.110000000
H    -3.402000000     0.648000000     4.437000000
H    -3.374000000    -0.166000000     5.713000000
O     2.330000000    -4.527000000    -0.763000000
H     2.966000000    -4.972000000    -1.323000000
H     2.811000000    -4.344000000     0.045000000
O    -3.106000000     5.278000000    -0.607000000
H    -3.366000000     6.129000000    -0.960000000
H    -2.301000000     5.457000000    -0.121000000
O     5.073000000     2.481000000     3.807000000
H     4.431000000     2.939000000     3.263000000
H     5.380000000     1.759000000     3.258000000
O    -2.374000000    -3.735000000    -7.561000000
H    -2.749000000    -2.889000000    -7.805000000
H    -1.763000000    -3.531000000    -6.854000000
O    -5.746000000    -0.194000000    -1.906000000
H    -5.207000000    -0.912000000    -2.237000000
H    -5.568000000    -0.175000000    -0.965000000
O    -0.475000000     3.467000000    -3.021000000
H     0.097000000     4.164000000    -2.701000000
H     0.125000000     2.786000000    -3.325000000
O    -1.145000000    -4.791000000     2.975000000
H    -0.296000000    -5.148000000     2.716000000
H    -1.241000000    -5.044000000     3.893000000
O     2.349000000     1.685000000     4.749000000
H     2.066000000     2.527000000     5.106000000
H     3.263000000     1.826000000     4.498000000
O     4.406000000    -1.680000000     4.489000000
H     5.056000000    -1.689000000     5.191000000
H     4.788000000    -1.116000000     3.816000000
