158
-3006.74316
C    -1.452000000     0.357000000    -0.127000000
H    -2.499000000     0.641000000    -0.059000000
C    -1.027000000    -0.734000000     0.530000000
H    -1.693000000    -1.390000000     1.084000000
C     0.376000000    -1.031000000     0.526000000
H     0.724000000    -1.864000000     1.010000000
C     1.246000000    -0.211000000    -0.102000000
H     2.315000000    -0.350000000     0.037000000
C     0.795000000     0.919000000    -0.738000000
H     1.540000000     1.561000000    -1.201000000
C    -0.550000000     1.243000000    -0.758000000
C    -1.109000000     2.396000000    -1.558000000
O    -0.398000000     3.232000000    -2.039000000
O    -2.285000000     2.544000000    -1.695000000
O     1.020000000    -3.928000000    -1.760000000
H     1.291000000    -4.688000000    -1.245000000
H     0.913000000    -4.266000000    -2.649000000
O     3.514000000    -4.061000000    -0.663000000
H     3.858000000    -4.521000000    -1.429000000
H     2.663000000    -3.727000000    -0.946000000
O    -4.075000000     2.939000000     2.370000000
H    -3.423000000     2.249000000     2.496000000
H    -3.940000000     3.234000000     1.469000000
O    -2.263000000     1.647000000    -4.576000000
H    -2.237000000     2.359000000    -3.937000000
H    -1.373000000     1.295000000    -4.579000000
O    -1.676000000    -1.993000000     5.104000000
H    -2.591000000    -2.031000000     5.381000000
H    -1.518000000    -2.836000000     4.681000000
O     3.287000000     5.014000000     2.283000000
H     2.489000000     4.490000000     2.212000000
H     3.998000000     4.386000000     2.155000000
O     0.985000000     3.542000000     2.222000000
H     0.814000000     2.700000000     2.644000000
H     0.131000000     3.974000000     2.193000000
O    -4.238000000    -3.090000000     1.119000000
H    -4.714000000    -2.263000000     1.053000000
H    -3.826000000    -3.198000000     0.261000000
O    -2.484000000     4.801000000    -3.151000000
H    -1.673000000     5.295000000    -3.271000000
H    -2.236000000     4.067000000    -2.588000000
O     1.048000000     1.780000000    -6.171000000
H     0.809000000     0.942000000    -5.775000000
H     0.957000000     1.633000000    -7.113000000
O     0.386000000     0.911000000     3.127000000
H    -0.228000000     0.402000000     2.597000000
H    -0.008000000     0.927000000     4.000000000
O    -4.500000000    -1.184000000     4.477000000
H    -5.314000000    -0.877000000     4.078000000
H    -4.691000000    -1.221000000     5.414000000
O    -1.743000000    -4.400000000    -0.843000000
H    -2.196000000    -4.996000000    -1.440000000
H    -0.813000000    -4.571000000    -0.995000000
O    -3.149000000    -5.394000000     2.557000000
H    -3.564000000    -5.898000000     1.857000000
H    -3.497000000    -4.509000000     2.453000000
O     4.526000000     2.279000000     2.698000000
H     4.677000000     1.681000000     1.965000000
H     3.846000000     1.852000000     3.219000000
O    -4.817000000     4.158000000    -4.432000000
H    -5.118000000     3.579000000    -3.731000000
H    -4.012000000     4.548000000    -4.092000000
O     3.568000000     4.813000000    -3.807000000
H     2.924000000     5.230000000    -4.381000000
H     3.340000000     5.119000000    -2.930000000
O    -7.163000000     3.055000000    -1.127000000
H    -6.966000000     3.963000000    -0.896000000
H    -6.406000000     2.768000000    -1.637000000
O     1.303000000     4.761000000    -0.380000000
H     0.940000000     4.487000000     0.463000000
H     0.869000000     4.199000000    -1.022000000
O     5.066000000     2.507000000    -1.851000000
H     4.794000000     2.131000000    -2.688000000
H     4.869000000     1.826000000    -1.207000000
O     0.597000000     4.362000000    -4.487000000
H     0.392000000     4.242000000    -3.560000000
H     0.150000000     3.639000000    -4.927000000
O    -5.287000000    -0.484000000    -1.528000000
H    -4.679000000    -1.194000000    -1.731000000
H    -5.341000000    -0.481000000    -0.572000000
O     1.194000000    -3.209000000     4.399000000
H     0.791000000    -3.835000000     3.798000000
H     2.111000000    -3.170000000     4.126000000
O     0.749000000    -2.065000000     6.826000000
H    -0.193000000    -1.942000000     6.703000000
H     1.080000000    -2.264000000     5.950000000
O     4.899000000     0.272000000     0.875000000
H     5.111000000    -0.303000000     0.140000000
H     4.342000000    -0.260000000     1.443000000
O     3.181000000     2.061000000    -4.270000000
H     2.431000000     1.625000000    -4.676000000
H     2.926000000     2.982000000    -4.224000000
O     1.170000000    -6.410000000    -0.351000000
H     0.666000000    -7.204000000    -0.532000000
H     2.078000000    -6.659000000    -0.521000000
O     3.705000000    -2.647000000     3.627000000
H     4.402000000    -2.685000000     4.282000000
H     4.094000000    -3.031000000     2.841000000
O    -2.913000000     0.670000000     3.341000000
H    -2.498000000     1.049000000     4.116000000
H    -3.276000000    -0.162000000     3.647000000
O    -3.481000000    -1.054000000    -4.570000000
H    -3.094000000    -0.180000000    -4.619000000
H    -4.299000000    -0.982000000    -5.061000000
O     3.256000000     6.453000000    -1.362000000
H     2.537000000     6.110000000    -0.832000000
H     2.847000000     7.111000000    -1.923000000
O    -0.319000000    -0.509000000    -5.348000000
H    -0.125000000    -1.381000000    -5.691000000
H     0.014000000    -0.525000000    -4.451000000
O     6.256000000    -1.276000000    -1.079000000
H     6.722000000    -2.111000000    -1.112000000
H     5.760000000    -1.246000000    -1.897000000
O    -0.127000000     6.733000000    -1.924000000
H    -0.725000000     7.342000000    -1.490000000
H    -0.172000000     5.936000000    -1.396000000
O     5.042000000     4.838000000    -0.487000000
H     4.240000000     5.311000000    -0.713000000
H     4.916000000     3.965000000    -0.858000000
O    -1.470000000     4.897000000     1.537000000
H    -2.294000000     4.619000000     1.137000000
H    -1.638000000     5.791000000     1.834000000
O     5.251000000    -3.357000000     1.297000000
H     5.370000000    -4.304000000     1.224000000
H     4.771000000    -3.115000000     0.505000000
O    -0.218000000    -7.265000000     3.341000000
H    -0.693000000    -7.442000000     2.529000000
H    -0.490000000    -6.381000000     3.590000000
O    -5.196000000    -0.132000000     1.350000000
H    -5.695000000     0.533000000     1.823000000
H    -4.286000000     0.030000000     1.598000000
O     0.528000000    -1.402000000    -2.697000000
H     0.583000000    -2.288000000    -2.339000000
H     0.393000000    -0.843000000    -1.933000000
O     0.348000000    -4.842000000     2.042000000
H    -0.569000000    -4.641000000     1.857000000
H     0.740000000    -4.986000000     1.181000000
O     3.035000000     0.116000000     3.966000000
H     2.916000000    -0.773000000     3.632000000
H     2.172000000     0.522000000     3.878000000
O     3.840000000    -0.752000000    -2.653000000
H     3.826000000    -1.174000000    -3.513000000
H     3.025000000    -0.251000000    -2.619000000
O    -6.041000000    -3.632000000     3.116000000
H    -5.528000000    -3.394000000     2.344000000
H    -5.777000000    -2.998000000     3.784000000
O    -4.960000000     2.128000000    -2.456000000
H    -4.056000000     2.425000000    -2.349000000
H    -4.944000000     1.212000000    -2.179000000
O    -3.547000000    -2.671000000    -1.706000000
H    -2.847000000    -3.237000000    -1.381000000
H    -3.621000000    -2.890000000    -2.634000000
O    -3.731000000     4.090000000    -0.019000000
H    -3.206000000     3.457000000    -0.509000000
H    -4.244000000     4.544000000    -0.687000000
O    -1.113000000    -4.681000000     5.523000000
H    -1.601000000    -4.065000000     6.069000000
H    -0.193000000    -4.492000000     5.711000000
