158
-3025.01990
C     0.819000000    -0.107000000    -1.168000000
H     1.497000000    -0.239000000    -2.006000000
C     1.254000000    -0.154000000     0.153000000
H     2.303000000    -0.297000000     0.403000000
C     0.370000000     0.049000000     1.194000000
H     0.728000000     0.157000000     2.252000000
C    -0.964000000     0.256000000     0.870000000
H    -1.642000000     0.345000000     1.715000000
C    -1.415000000     0.249000000    -0.461000000
H    -2.474000000     0.356000000    -0.682000000
C    -0.519000000     0.037000000    -1.475000000
C    -0.840000000    -0.017000000    -2.960000000
O    -1.989000000     0.003000000    -3.344000000
O    -0.073000000    -0.517000000    -3.753000000
O    -7.387000000    -0.651000000    -0.462000000
H    -7.447000000     0.235000000    -0.818000000
H    -6.475000000    -0.905000000    -0.605000000
O    -1.461000000    -4.444000000     2.242000000
H    -0.994000000    -4.088000000     1.486000000
H    -0.770000000    -4.715000000     2.846000000
O    -0.727000000     3.107000000    -0.214000000
H    -1.646000000     3.362000000    -0.132000000
H    -0.635000000     2.352000000     0.367000000
O    -3.635000000    -1.902000000    -4.673000000
H    -2.836000000    -1.421000000    -4.888000000
H    -3.699000000    -1.846000000    -3.720000000
O    -2.893000000    -2.667000000    -0.795000000
H    -2.034000000    -2.566000000    -0.385000000
H    -2.960000000    -3.603000000    -0.983000000
O    -4.050000000     0.058000000     1.996000000
H    -3.705000000    -0.834000000     1.996000000
H    -4.159000000     0.273000000     2.923000000
O    -2.684000000     2.338000000    -4.419000000
H    -2.395000000     1.463000000    -4.161000000
H    -1.932000000     2.902000000    -4.238000000
O     4.391000000     2.214000000     0.011000000
H     4.740000000     3.054000000     0.308000000
H     3.444000000     2.292000000     0.131000000
O    -3.473000000    -2.495000000     3.119000000
H    -2.818000000    -3.189000000     3.188000000
H    -3.995000000    -2.732000000     2.353000000
O    -2.586000000    -3.404000000    -6.819000000
H    -2.814000000    -2.804000000    -7.529000000
H    -2.962000000    -3.002000000    -6.036000000
O    -4.973000000    -1.359000000    -1.671000000
H    -4.143000000    -1.766000000    -1.421000000
H    -4.723000000    -0.512000000    -2.040000000
O     5.729000000    -1.805000000    -1.296000000
H     6.182000000    -1.188000000    -0.721000000
H     6.179000000    -1.724000000    -2.137000000
O    -4.700000000     1.423000000    -2.855000000
H    -3.924000000     1.644000000    -3.370000000
H    -4.623000000     1.956000000    -2.064000000
O     1.981000000     3.401000000     0.325000000
H     2.161000000     3.582000000     1.248000000
H     1.047000000     3.585000000     0.223000000
O     2.675000000     2.893000000     5.058000000
H     3.360000000     3.389000000     5.506000000
H     2.240000000     3.537000000     4.499000000
O     2.037000000     2.414000000    -2.734000000
H     2.459000000     1.767000000    -2.169000000
H     2.569000000     3.203000000    -2.634000000
O    -0.348000000    -2.853000000     0.359000000
H     0.107000000    -2.917000000    -0.481000000
H    -0.046000000    -2.025000000     0.733000000
O    -1.957000000     1.651000000    -7.562000000
H    -1.349000000     1.202000000    -6.974000000
H    -2.314000000     2.366000000    -7.036000000
O     4.180000000     0.095000000    -2.476000000
H     4.059000000    -0.746000000    -2.035000000
H     4.352000000     0.715000000    -1.768000000
O     3.576000000    -2.606000000     3.154000000
H     3.451000000    -2.204000000     4.014000000
H     4.422000000    -3.048000000     3.217000000
O     4.151000000     0.092000000    -6.877000000
H     3.334000000     0.092000000    -6.377000000
H     4.832000000     0.242000000    -6.222000000
O     2.432000000    -0.372000000    -4.812000000
H     2.990000000    -0.352000000    -4.034000000
H     1.543000000    -0.456000000    -4.467000000
O     3.224000000    -2.040000000     6.067000000
H     3.483000000    -1.123000000     6.157000000
H     2.548000000    -2.164000000     6.733000000
O     0.875000000     2.916000000    -7.077000000
H     0.860000000     1.975000000    -6.906000000
H     1.547000000     3.256000000    -6.487000000
O    -3.265000000     4.500000000    -0.206000000
H    -3.770000000     3.695000000    -0.322000000
H    -3.212000000     4.615000000     0.743000000
O    -0.234000000     0.069000000    -6.238000000
H     0.254000000    -0.623000000    -6.684000000
H    -0.062000000    -0.078000000    -5.308000000
O    -4.581000000     2.131000000    -0.119000000
H    -4.302000000     1.492000000     0.537000000
H    -5.537000000     2.129000000    -0.064000000
O    -2.271000000    -4.869000000    -3.610000000
H    -1.891000000    -5.681000000    -3.946000000
H    -1.837000000    -4.177000000    -4.108000000
O     3.004000000    -4.005000000     1.009000000
H     3.091000000    -3.437000000     1.774000000
H     2.361000000    -4.664000000     1.272000000
O    -4.520000000     0.773000000     4.753000000
H    -4.920000000     0.954000000     5.604000000
H    -3.623000000     1.095000000     4.836000000
O     0.390000000    -3.566000000    -2.138000000
H     0.081000000    -3.358000000    -3.019000000
H     1.280000000    -3.214000000    -2.107000000
O    -0.782000000    -2.853000000    -4.615000000
H    -0.332000000    -2.788000000    -5.458000000
H    -0.799000000    -1.955000000    -4.283000000
O     3.143000000     0.303000000     4.396000000
H     3.011000000     1.235000000     4.568000000
H     2.343000000     0.026000000     3.949000000
O     1.623000000     1.735000000     7.600000000
H     1.630000000     2.104000000     6.717000000
H     2.497000000     1.920000000     7.944000000
O     5.801000000    -0.007000000     0.693000000
H     5.692000000     0.848000000     0.278000000
H     5.930000000     0.191000000     1.621000000
O    -2.427000000     0.086000000     7.648000000
H    -2.227000000    -0.148000000     6.741000000
H    -3.225000000     0.611000000     7.589000000
O     3.124000000    -3.379000000    -1.602000000
H     3.808000000    -2.712000000    -1.554000000
H     3.126000000    -3.787000000    -0.736000000
O    -1.332000000     3.194000000     3.156000000
H    -0.613000000     3.818000000     3.055000000
H    -1.265000000     2.896000000     4.063000000
O     5.642000000    -3.956000000     0.456000000
H     5.836000000    -3.338000000    -0.248000000
H     4.723000000    -3.794000000     0.671000000
O     3.670000000    -3.174000000    -4.892000000
H     3.110000000    -2.423000000    -5.086000000
H     3.095000000    -3.790000000    -4.438000000
O    -5.075000000     3.164000000    -5.633000000
H    -4.371000000     3.054000000    -4.995000000
H    -5.076000000     2.348000000    -6.133000000
O    -1.793000000    -0.633000000     5.086000000
H    -0.966000000    -0.939000000     4.714000000
H    -2.467000000    -1.061000000     4.558000000
O     0.718000000    -2.724000000    -7.412000000
H    -0.011000000    -3.281000000    -7.688000000
H     1.465000000    -3.040000000    -7.920000000
O    -0.544000000     3.510000000    -2.944000000
H     0.264000000     3.082000000    -3.229000000
H    -0.536000000     3.424000000    -1.991000000
O     0.134000000    -2.683000000     4.302000000
H     0.107000000    -3.435000000     3.712000000
H     0.734000000    -2.947000000     5.000000000
O     2.007000000     5.156000000     3.695000000
H     1.400000000     5.386000000     2.992000000
H     2.595000000     5.908000000     3.760000000
O    -3.692000000     4.366000000     2.435000000
H    -3.026000000     3.764000000     2.766000000
H    -4.523000000     3.930000000     2.621000000
O     5.912000000     0.556000000     3.368000000
H     6.507000000     0.716000000     4.100000000
H     5.091000000     0.287000000     3.781000000
