158
-3027.78162
C     1.048000000    -0.019000000    -1.082000000
H     1.824000000     0.064000000    -1.839000000
C     1.214000000     0.288000000     0.280000000
H     2.210000000     0.587000000     0.597000000
C     0.233000000     0.295000000     1.226000000
H     0.430000000     0.632000000     2.261000000
C    -1.034000000     0.006000000     0.771000000
H    -1.934000000     0.114000000     1.370000000
C    -1.304000000    -0.336000000    -0.562000000
H    -2.291000000    -0.642000000    -0.899000000
C    -0.279000000    -0.244000000    -1.493000000
C    -0.528000000    -0.479000000    -2.958000000
O    -1.632000000    -0.473000000    -3.388000000
O     0.403000000    -0.857000000    -3.650000000
O    -5.912000000    -0.452000000    -0.316000000
H    -5.685000000     0.452000000    -0.534000000
H    -5.675000000    -0.542000000     0.607000000
O    -5.205000000    -0.909000000    -3.073000000
H    -6.015000000    -0.497000000    -3.374000000
H    -5.269000000    -0.895000000    -2.118000000
O    -0.658000000     2.870000000    -0.347000000
H    -1.543000000     2.579000000    -0.567000000
H    -0.258000000     2.116000000     0.087000000
O    -3.289000000    -1.998000000    -4.508000000
H    -2.559000000    -1.536000000    -4.097000000
H    -4.064000000    -1.498000000    -4.253000000
O     5.964000000     2.911000000    -0.368000000
H     5.223000000     3.424000000    -0.690000000
H     6.273000000     3.393000000     0.400000000
O     0.958000000    -3.510000000     2.498000000
H     1.225000000    -4.296000000     2.975000000
H     1.448000000    -3.551000000     1.677000000
O    -5.337000000    -0.648000000     2.542000000
H    -6.246000000    -0.357000000     2.614000000
H    -4.824000000     0.078000000     2.896000000
O     2.947000000     3.261000000    -0.816000000
H     2.754000000     3.151000000     0.115000000
H     2.949000000     4.209000000    -0.950000000
O    -0.861000000     2.566000000    -6.191000000
H    -0.910000000     1.611000000    -6.179000000
H    -0.113000000     2.775000000    -5.631000000
O     5.630000000     0.077000000    -0.070000000
H     5.712000000     0.993000000    -0.335000000
H     5.153000000     0.109000000     0.759000000
O    -1.666000000    -4.516000000     1.973000000
H    -0.782000000    -4.157000000     2.056000000
H    -2.229000000    -3.748000000     1.881000000
O    -3.329000000    -2.362000000     1.581000000
H    -4.002000000    -1.775000000     1.926000000
H    -3.596000000    -2.529000000     0.677000000
O    -2.027000000    -4.147000000    -6.549000000
H    -1.887000000    -3.239000000    -6.816000000
H    -2.278000000    -4.089000000    -5.627000000
O    -3.605000000    -3.026000000    -1.083000000
H    -2.793000000    -3.526000000    -1.157000000
H    -3.677000000    -2.559000000    -1.916000000
O    -3.098000000     1.872000000    -3.242000000
H    -2.618000000     1.098000000    -3.535000000
H    -3.379000000     1.658000000    -2.353000000
O     1.982000000     3.504000000     2.012000000
H     2.108000000     3.161000000     2.896000000
H     1.035000000     3.623000000     1.934000000
O     2.396000000     2.269000000     4.725000000
H     3.167000000     2.699000000     5.096000000
H     1.722000000     2.364000000     5.398000000
O     4.253000000     1.417000000    -3.058000000
H     4.331000000     0.573000000    -2.612000000
H     3.664000000     1.928000000    -2.502000000
O     2.484000000    -2.798000000     0.004000000
H     2.937000000    -3.129000000    -0.772000000
H     2.033000000    -2.010000000    -0.301000000
O     4.294000000    -1.142000000    -2.006000000
H     5.008000000    -0.858000000    -1.434000000
H     4.234000000    -2.086000000    -1.861000000
O     3.702000000    -3.116000000     2.498000000
H     3.531000000    -2.407000000     3.118000000
H     3.337000000    -2.803000000     1.670000000
O     2.813000000    -1.089000000    -4.682000000
H     3.321000000    -0.922000000    -3.888000000
H     1.905000000    -1.135000000    -4.380000000
O     2.976000000    -0.745000000     4.827000000
H     2.763000000     0.184000000     4.742000000
H     3.825000000    -0.757000000     5.269000000
O    -2.921000000    -4.641000000    -3.845000000
H    -3.151000000    -3.784000000    -4.202000000
H    -2.358000000    -4.446000000    -3.096000000
O    -1.807000000    -1.857000000    -7.785000000
H    -2.389000000    -1.654000000    -8.518000000
H    -1.469000000    -1.007000000    -7.504000000
O     2.510000000     1.649000000    -6.671000000
H     2.038000000     2.334000000    -6.198000000
H     3.406000000     1.979000000    -6.740000000
O    -0.111000000    -0.031000000    -6.116000000
H     0.826000000     0.127000000    -6.235000000
H    -0.179000000    -0.415000000    -5.242000000
O    -3.983000000     1.981000000    -0.484000000
H    -3.728000000     1.836000000     0.427000000
H    -4.143000000     2.923000000    -0.541000000
O    -1.098000000    -4.394000000    -1.669000000
H    -0.717000000    -5.242000000    -1.440000000
H    -0.356000000    -3.873000000    -1.974000000
O    -3.821000000     0.517000000     4.908000000
H    -3.554000000     0.735000000     5.801000000
H    -3.155000000    -0.099000000     4.603000000
O     3.192000000    -3.813000000    -2.545000000
H     2.925000000    -4.306000000    -3.321000000
H     4.092000000    -4.095000000    -2.380000000
O    -4.727000000    -2.502000000     4.585000000
H    -4.157000000    -2.687000000     3.838000000
H    -5.505000000    -3.037000000     4.430000000
O    -4.617000000    -0.995000000    -7.277000000
H    -3.810000000    -1.117000000    -6.777000000
H    -4.469000000    -0.193000000    -7.779000000
O    -0.005000000    -3.525000000    -4.203000000
H     0.054000000    -3.742000000    -5.133000000
H     0.177000000    -2.586000000    -4.164000000
O     5.027000000     1.438000000     2.852000000
H     5.263000000     2.321000000     2.568000000
H     4.482000000     1.573000000     3.627000000
O     1.964000000     6.228000000     1.902000000
H     2.102000000     5.303000000     2.107000000
H     1.232000000     6.230000000     1.285000000
O    -0.441000000    -1.432000000     7.737000000
H     0.087000000    -1.652000000     6.970000000
H    -1.343000000    -1.588000000     7.460000000
O    -0.834000000    -3.938000000     6.290000000
H    -0.474000000    -3.644000000     5.453000000
H    -1.272000000    -3.166000000     6.647000000
O    -0.217000000     2.623000000     5.856000000
H    -0.974000000     2.278000000     6.329000000
H    -0.278000000     3.572000000     5.966000000
O    -3.287000000     2.063000000     2.189000000
H    -3.559000000     2.100000000     3.106000000
H    -2.358000000     2.297000000     2.205000000
O     4.586000000    -2.611000000    -5.786000000
H     3.991000000    -2.107000000    -5.230000000
H     4.499000000    -3.512000000    -5.474000000
O    -3.472000000     2.713000000    -6.071000000
H    -2.516000000     2.739000000    -6.116000000
H    -3.662000000     2.417000000    -5.181000000
O    -2.187000000    -1.074000000     3.943000000
H    -1.282000000    -1.111000000     4.253000000
H    -2.114000000    -0.856000000     3.014000000
O     1.267000000    -4.008000000    -7.231000000
H     1.585000000    -3.115000000    -7.363000000
H     0.806000000    -4.220000000    -8.042000000
O    -1.783000000     4.586000000    -3.172000000
H    -1.883000000     5.066000000    -3.994000000
H    -2.088000000     3.701000000    -3.373000000
O     1.289000000     2.763000000    -4.484000000
H     1.504000000     1.988000000    -3.965000000
H     1.173000000     3.459000000    -3.837000000
O     0.418000000    -1.917000000     4.553000000
H     1.229000000    -1.453000000     4.761000000
H     0.641000000    -2.464000000     3.800000000
O    -0.666000000     3.199000000     3.057000000
H    -0.867000000     4.113000000     3.258000000
H    -0.469000000     2.804000000     3.906000000
