158
-3035.25672
C     1.093000000    -0.034000000    -1.021000000
H     1.896000000     0.173000000    -1.724000000
C     1.204000000     0.419000000     0.313000000
H     2.039000000     0.978000000     0.728000000
C     0.155000000     0.219000000     1.214000000
H     0.274000000     0.390000000     2.270000000
C    -1.075000000    -0.287000000     0.768000000
H    -1.818000000    -0.351000000     1.558000000
C    -1.227000000    -0.539000000    -0.583000000
H    -2.174000000    -0.884000000    -0.989000000
C    -0.196000000    -0.441000000    -1.498000000
C    -0.450000000    -0.496000000    -3.005000000
O    -1.493000000    -0.931000000    -3.441000000
O     0.428000000    -0.312000000    -3.844000000
O    -4.888000000    -1.916000000    -2.029000000
H    -4.469000000    -1.111000000    -1.726000000
H    -5.725000000    -1.939000000    -1.565000000
O    -0.783000000     2.807000000     0.083000000
H     0.068000000     3.236000000    -0.006000000
H    -0.572000000     1.895000000     0.286000000
O     2.488000000    -3.834000000    -4.689000000
H     2.627000000    -4.624000000    -4.167000000
H     1.549000000    -3.831000000    -4.874000000
O    -3.672000000    -1.966000000    -4.552000000
H    -2.880000000    -1.629000000    -4.134000000
H    -4.330000000    -1.960000000    -3.857000000
O    -0.112000000    -3.911000000     1.706000000
H     0.016000000    -4.857000000     1.785000000
H     0.716000000    -3.586000000     1.353000000
O    -3.378000000     3.024000000     0.633000000
H    -2.502000000     2.816000000     0.307000000
H    -3.384000000     3.978000000     0.710000000
O     1.751000000     4.142000000    -0.481000000
H     1.987000000     4.172000000     0.446000000
H     1.881000000     5.038000000    -0.790000000
O    -3.387000000    -5.462000000    -2.343000000
H    -3.055000000    -4.814000000    -1.722000000
H    -4.080000000    -5.919000000    -1.866000000
O     5.367000000     1.837000000    -0.193000000
H     5.714000000     2.696000000     0.047000000
H     5.278000000     1.373000000     0.639000000
O    -3.018000000    -2.616000000     2.103000000
H    -2.325000000    -2.583000000     2.762000000
H    -2.615000000    -3.054000000     1.354000000
O    -5.124000000    -4.151000000    -0.236000000
H    -5.089000000    -3.619000000    -1.031000000
H    -4.228000000    -4.135000000     0.102000000
O    -2.171000000    -3.889000000    -0.081000000
H    -1.843000000    -3.296000000    -0.757000000
H    -1.416000000    -4.046000000     0.485000000
O    -3.186000000     1.431000000    -2.763000000
H    -2.754000000     0.592000000    -2.926000000
H    -3.695000000     1.288000000    -1.966000000
O     2.697000000     4.232000000     2.075000000
H     2.686000000     3.743000000     2.898000000
H     3.491000000     4.765000000     2.124000000
O     2.722000000     1.974000000     4.174000000
H     3.676000000     1.999000000     4.100000000
H     2.550000000     2.123000000     5.104000000
O     3.377000000     2.758000000    -2.353000000
H     3.982000000     2.496000000    -1.659000000
H     2.605000000     3.080000000    -1.889000000
O     2.082000000    -2.272000000     1.284000000
H     2.114000000    -2.183000000     0.331000000
H     1.960000000    -1.379000000     1.604000000
O     3.421000000    -1.996000000    -2.317000000
H     3.246000000    -2.153000000    -3.245000000
H     3.267000000    -2.842000000    -1.898000000
O     3.015000000     2.909000000    -5.206000000
H     2.978000000     2.942000000    -4.251000000
H     2.646000000     2.055000000    -5.431000000
O     2.930000000     0.130000000    -4.357000000
H     3.537000000     0.198000000    -3.620000000
H     2.073000000    -0.001000000    -3.950000000
O     1.585000000    -0.611000000     4.096000000
H     1.713000000     0.330000000     4.214000000
H     2.298000000    -1.013000000     4.592000000
O     2.851000000    -2.783000000     5.636000000
H     2.729000000    -3.484000000     4.997000000
H     2.242000000    -2.994000000     6.343000000
O    -3.341000000    -4.775000000    -5.006000000
H    -3.280000000    -3.832000000    -5.161000000
H    -3.205000000    -4.872000000    -4.064000000
O    -2.339000000    -2.340000000    -7.832000000
H    -2.297000000    -1.888000000    -8.675000000
H    -2.450000000    -1.638000000    -7.190000000
O     2.459000000     1.039000000    -7.526000000
H     1.898000000     0.305000000    -7.276000000
H     3.283000000     0.630000000    -7.792000000
O    -1.372000000     0.351000000    -6.367000000
H    -0.792000000     1.110000000    -6.315000000
H    -1.355000000    -0.024000000    -5.486000000
O    -4.929000000     0.451000000    -0.703000000
H    -5.202000000     0.513000000     0.212000000
H    -5.201000000     1.282000000    -1.091000000
O    -0.364000000    -3.411000000    -2.178000000
H    -0.682000000    -2.715000000    -2.752000000
H    -0.166000000    -4.138000000    -2.769000000
O    -4.681000000     2.547000000     5.243000000
H    -4.599000000     3.476000000     5.459000000
H    -3.859000000     2.331000000     4.803000000
O     1.959000000    -4.040000000    -1.042000000
H     1.123000000    -3.633000000    -1.268000000
H     1.785000000    -4.980000000    -1.076000000
O    -0.349000000    -2.946000000    -5.124000000
H    -0.316000000    -2.055000000    -4.777000000
H    -1.004000000    -2.907000000    -5.821000000
O     4.819000000     0.373000000     2.142000000
H     5.578000000     0.625000000     2.668000000
H     4.285000000    -0.158000000     2.733000000
O     0.605000000     6.402000000     1.738000000
H     1.018000000     5.550000000     1.878000000
H    -0.231000000     6.197000000     1.319000000
O     5.132000000     0.413000000    -2.554000000
H     5.278000000     0.953000000    -1.777000000
H     4.746000000    -0.394000000    -2.214000000
O     0.845000000    -2.166000000     7.538000000
H     0.330000000    -2.876000000     7.155000000
H     0.674000000    -1.413000000     6.972000000
O     0.459000000     4.624000000     5.408000000
H     0.956000000     4.457000000     6.208000000
H     0.499000000     5.573000000     5.294000000
O    -0.512000000    -3.898000000     6.171000000
H    -0.355000000    -3.513000000     5.309000000
H    -1.465000000    -3.939000000     6.245000000
O     0.179000000     3.436000000     3.011000000
H     0.950000000     2.883000000     2.890000000
H     0.340000000     3.895000000     3.835000000
O    -5.458000000     1.504000000     1.755000000
H    -4.848000000     2.143000000     1.386000000
H    -6.060000000     2.027000000     2.285000000
O     3.690000000    -1.825000000    -6.091000000
H     3.497000000    -1.039000000    -5.580000000
H     3.261000000    -2.534000000    -5.612000000
O    -4.157000000     2.401000000    -5.085000000
H    -3.528000000     2.484000000    -5.801000000
H    -3.722000000     1.834000000    -4.448000000
O    -5.271000000    -0.755000000     3.557000000
H    -4.754000000    -1.339000000     3.002000000
H    -5.356000000     0.049000000     3.043000000
O    -1.916000000     4.141000000    -2.683000000
H    -1.890000000     3.266000000    -2.297000000
H    -1.848000000     3.990000000    -3.626000000
O     0.204000000     2.847000000    -6.957000000
H     0.123000000     3.441000000    -7.704000000
H     1.034000000     2.392000000    -7.101000000
O    -0.040000000    -2.686000000     3.998000000
H     0.555000000    -1.939000000     4.060000000
H     0.011000000    -2.957000000     3.081000000
O    -2.553000000     2.603000000     3.244000000
H    -2.837000000     2.730000000     2.338000000
H    -1.621000000     2.821000000     3.235000000
O    -1.387000000     4.056000000    -5.322000000
H    -1.098000000     4.898000000    -5.674000000
H    -0.732000000     3.429000000    -5.630000000
O     6.346000000    -1.640000000     0.230000000
H     6.054000000    -2.137000000     0.994000000
H     5.829000000    -0.835000000     0.255000000
