158
-3017.61212
C     1.049000000    -0.008000000    -0.992000000
H     2.007000000     0.024000000    -1.504000000
C     1.185000000     0.093000000     0.377000000
H     2.207000000     0.217000000     0.725000000
C     0.079000000     0.055000000     1.259000000
H     0.174000000     0.162000000     2.327000000
C    -1.142000000    -0.061000000     0.703000000
H    -1.956000000    -0.002000000     1.421000000
C    -1.308000000    -0.110000000    -0.723000000
H    -2.283000000    -0.262000000    -1.180000000
C    -0.237000000    -0.122000000    -1.564000000
C    -0.295000000    -0.413000000    -3.048000000
O    -1.407000000    -0.574000000    -3.551000000
O     0.746000000    -0.496000000    -3.736000000
O    -4.780000000    -2.902000000    -1.996000000
H    -5.639000000    -2.845000000    -1.577000000
H    -4.879000000    -2.417000000    -2.815000000
O     0.668000000     3.004000000    -0.985000000
H    -0.059000000     3.081000000    -1.602000000
H     0.546000000     2.147000000    -0.576000000
O    -2.201000000    -3.639000000    -2.508000000
H    -1.830000000    -2.816000000    -2.826000000
H    -3.077000000    -3.405000000    -2.202000000
O     5.798000000    -0.276000000     3.975000000
H     6.551000000    -0.162000000     4.555000000
H     5.348000000    -1.048000000     4.316000000
O    -4.046000000     3.462000000    -1.432000000
H    -3.720000000     4.362000000    -1.463000000
H    -4.119000000     3.267000000    -0.498000000
O     4.282000000     4.235000000     1.233000000
H     4.398000000     3.482000000     1.813000000
H     3.335000000     4.297000000     1.109000000
O     4.615000000    -2.520000000     5.019000000
H     3.707000000    -2.818000000     4.966000000
H     5.131000000    -3.269000000     4.722000000
O    -1.805000000    -2.715000000     4.946000000
H    -1.736000000    -2.920000000     4.014000000
H    -2.612000000    -2.205000000     5.020000000
O     5.088000000     0.568000000     0.048000000
H     4.549000000     0.794000000     0.806000000
H     4.909000000    -0.360000000    -0.105000000
O    -1.976000000    -3.814000000     2.245000000
H    -1.869000000    -4.708000000     2.570000000
H    -1.405000000    -3.767000000     1.479000000
O    -4.577000000    -0.792000000    -7.086000000
H    -4.339000000     0.122000000    -7.240000000
H    -3.933000000    -1.103000000    -6.449000000
O    -0.353000000    -3.021000000    -0.042000000
H    -0.464000000    -3.120000000    -0.988000000
H     0.011000000    -2.143000000     0.066000000
O     5.025000000     3.551000000    -3.299000000
H     4.152000000     3.795000000    -2.991000000
H     4.886000000     2.748000000    -3.801000000
O    -3.178000000     0.721000000     6.974000000
H    -2.364000000     0.603000000     6.484000000
H    -2.909000000     0.700000000     7.892000000
O    -3.469000000     1.302000000    -3.396000000
H    -2.635000000     0.869000000    -3.576000000
H    -3.457000000     1.462000000    -2.453000000
O     4.409000000     1.397000000    -4.731000000
H     4.364000000     0.442000000    -4.705000000
H     3.820000000     1.646000000    -5.443000000
O     4.853000000     1.991000000     3.006000000
H     5.709000000     2.350000000     3.238000000
H     4.891000000     1.078000000     3.292000000
O     6.911000000    -1.505000000     1.367000000
H     6.583000000    -0.785000000     1.907000000
H     6.466000000    -2.281000000     1.708000000
O     1.303000000     1.865000000     5.007000000
H     1.545000000     1.668000000     5.912000000
H     2.026000000     2.397000000     4.675000000
O     2.461000000     4.216000000    -2.942000000
H     2.287000000     3.828000000    -2.085000000
H     1.606000000     4.235000000    -3.374000000
O     2.601000000    -3.943000000     0.661000000
H     1.699000000    -4.261000000     0.616000000
H     3.089000000    -4.661000000     1.063000000
O    -0.390000000     1.225000000    -8.328000000
H    -0.040000000     1.096000000    -7.447000000
H     0.277000000     1.746000000    -8.777000000
O     3.515000000    -0.976000000    -3.718000000
H     3.393000000    -1.901000000    -3.932000000
H     2.628000000    -0.643000000    -3.582000000
O     1.526000000    -0.971000000     4.384000000
H     1.853000000    -0.072000000     4.348000000
H     1.761000000    -1.346000000     3.535000000
O    -3.076000000    -5.458000000    -4.485000000
H    -2.808000000    -4.654000000    -4.041000000
H    -3.056000000    -6.127000000    -3.800000000
O    -2.771000000    -1.820000000    -5.507000000
H    -2.541000000    -1.369000000    -4.695000000
H    -1.964000000    -1.813000000    -6.022000000
O    -4.160000000     3.067000000     1.375000000
H    -3.388000000     3.225000000     1.917000000
H    -4.822000000     3.667000000     1.720000000
O    -1.046000000     5.370000000     1.453000000
H    -1.312000000     5.888000000     2.213000000
H    -1.433000000     4.507000000     1.605000000
O    -6.333000000     2.068000000    -2.096000000
H    -6.865000000     2.387000000    -2.825000000
H    -5.749000000     2.797000000    -1.888000000
O     0.981000000     1.095000000    -5.993000000
H     1.615000000     0.463000000    -6.332000000
H     0.691000000     0.722000000    -5.161000000
O    -6.608000000    -0.239000000    -0.829000000
H    -5.896000000    -0.138000000    -0.196000000
H    -6.640000000     0.599000000    -1.290000000
O    -0.498000000     4.571000000     5.026000000
H     0.406000000     4.860000000     4.898000000
H    -0.434000000     3.862000000     5.666000000
O     0.047000000    -5.298000000    -3.301000000
H     0.448000000    -4.459000000    -3.530000000
H    -0.836000000    -5.070000000    -3.010000000
O    -1.856000000     3.046000000     3.126000000
H    -1.469000000     3.791000000     3.586000000
H    -1.325000000     2.296000000     3.396000000
O     0.892000000    -2.847000000    -4.885000000
H     0.851000000    -2.029000000    -4.390000000
H     0.155000000    -2.796000000    -5.493000000
O     4.381000000    -2.037000000    -0.259000000
H     4.842000000    -2.821000000    -0.558000000
H     3.509000000    -2.350000000    -0.018000000
O     1.564000000     4.867000000     0.523000000
H     1.299000000     4.117000000    -0.009000000
H     0.740000000     5.282000000     0.778000000
O     6.803000000    -1.415000000    -1.953000000
H     6.145000000    -1.531000000    -2.638000000
H     6.299000000    -1.174000000    -1.175000000
O     1.777000000    -3.276000000     5.928000000
H     1.920000000    -3.701000000     5.082000000
H     1.610000000    -2.359000000     5.711000000
O    -4.833000000     0.448000000     1.380000000
H    -4.515000000     1.345000000     1.484000000
H    -5.723000000     0.466000000     1.732000000
O    -4.443000000     3.313000000    -4.919000000
H    -4.184000000     2.975000000    -5.777000000
H    -4.168000000     2.635000000    -4.302000000
O    -4.546000000    -2.875000000     1.939000000
H    -4.648000000    -1.934000000     1.798000000
H    -3.606000000    -3.030000000     1.852000000
O    -0.450000000    -2.189000000    -7.200000000
H     0.077000000    -1.510000000    -7.622000000
H    -0.690000000    -2.782000000    -7.912000000
O    -1.495000000     3.230000000    -2.526000000
H    -2.397000000     3.478000000    -2.325000000
H    -1.517000000     2.969000000    -3.447000000
O     2.650000000    -0.367000000    -7.342000000
H     2.573000000     0.185000000    -8.120000000
H     3.464000000    -0.853000000    -7.473000000
O     2.438000000    -3.814000000     3.482000000
H     2.218000000    -3.346000000     2.677000000
H     2.645000000    -4.703000000     3.193000000
O    -1.095000000     0.275000000     5.318000000
H    -1.257000000    -0.663000000     5.211000000
H    -0.158000000     0.376000000     5.152000000
O    -1.235000000     2.585000000    -5.261000000
H    -0.360000000     2.246000000    -5.451000000
H    -1.821000000     2.047000000    -5.794000000
