158
-3050.01573
C     0.842000000    -0.987000000    -0.658000000
H     1.546000000    -1.740000000    -1.000000000
C     0.921000000    -0.559000000     0.658000000
H     1.719000000    -1.018000000     1.237000000
C     0.015000000     0.312000000     1.138000000
H     0.079000000     0.662000000     2.130000000
C    -1.012000000     0.859000000     0.401000000
H    -1.783000000     1.510000000     0.805000000
C    -1.037000000     0.512000000    -0.984000000
H    -1.743000000     1.067000000    -1.596000000
C    -0.095000000    -0.389000000    -1.536000000
C    -0.158000000    -0.766000000    -2.928000000
O    -0.642000000    -0.032000000    -3.777000000
O     0.386000000    -1.821000000    -3.254000000
O     3.629000000     4.985000000     4.201000000
H     4.585000000     4.960000000     4.144000000
H     3.362000000     5.566000000     3.490000000
O    -4.498000000     0.452000000    -0.573000000
H    -5.374000000     0.456000000    -0.185000000
H    -4.135000000    -0.401000000    -0.336000000
O    -0.593000000     4.614000000    -1.310000000
H    -1.479000000     4.630000000    -0.950000000
H    -0.518000000     3.756000000    -1.727000000
O    -3.354000000    -3.687000000    -2.257000000
H    -3.224000000    -2.936000000    -2.836000000
H    -3.647000000    -3.303000000    -1.430000000
O    -1.405000000     1.352000000     6.222000000
H    -0.642000000     0.832000000     6.474000000
H    -1.953000000     0.746000000     5.723000000
O     4.117000000    -0.147000000     4.041000000
H     4.166000000     0.143000000     3.131000000
H     5.015000000    -0.397000000     4.262000000
O    -2.948000000     4.513000000     0.035000000
H    -3.354000000     4.900000000     0.811000000
H    -3.670000000     4.081000000    -0.422000000
O     3.704000000     2.897000000     0.486000000
H     3.988000000     2.224000000     1.104000000
H     2.857000000     3.189000000     0.823000000
O     3.730000000    -3.726000000     5.013000000
H     2.973000000    -3.407000000     4.522000000
H     4.002000000    -4.516000000     4.546000000
O    -1.957000000     2.169000000    -3.798000000
H    -2.086000000     2.543000000    -4.670000000
H    -1.342000000     1.448000000    -3.935000000
O    -1.830000000    -2.674000000     4.498000000
H    -1.485000000    -3.102000000     3.714000000
H    -2.239000000    -1.872000000     4.173000000
O     4.595000000    -0.710000000    -1.770000000
H     4.620000000     0.207000000    -1.497000000
H     3.833000000    -1.073000000    -1.320000000
O    -1.233000000    -3.616000000     2.012000000
H    -1.402000000    -4.204000000     1.276000000
H    -0.285000000    -3.480000000     1.996000000
O    -2.841000000    -1.747000000     0.121000000
H    -2.755000000    -2.336000000     0.871000000
H    -2.155000000    -1.092000000     0.251000000
O    -4.583000000     0.912000000    -3.490000000
H    -4.130000000     0.355000000    -2.857000000
H    -3.920000000     1.541000000    -3.774000000
O     4.942000000     0.605000000     1.581000000
H     5.252000000    -0.263000000     1.320000000
H     5.741000000     1.109000000     1.732000000
O    -3.561000000     2.540000000    -6.187000000
H    -3.362000000     3.268000000    -6.775000000
H    -3.741000000     1.803000000    -6.771000000
O     2.910000000     6.327000000     1.921000000
H     2.949000000     6.887000000     1.146000000
H     2.260000000     5.659000000     1.701000000
O     1.494000000    -0.263000000     5.291000000
H     2.124000000    -0.598000000     4.653000000
H     1.511000000     0.686000000     5.168000000
O     0.560000000    -4.859000000    -0.805000000
H    -0.380000000    -4.708000000    -0.907000000
H     0.971000000    -4.185000000    -1.346000000
O     1.997000000    -3.587000000    -2.557000000
H     1.312000000    -2.978000000    -2.832000000
H     2.784000000    -3.284000000    -3.011000000
O     1.270000000     2.904000000    -7.901000000
H     0.874000000     2.376000000    -7.207000000
H     2.208000000     2.728000000    -7.830000000
O     3.042000000     0.763000000    -4.668000000
H     3.550000000     0.301000000    -4.001000000
H     2.434000000     0.105000000    -5.004000000
O    -2.911000000    -1.606000000    -4.078000000
H    -2.187000000    -1.000000000    -3.918000000
H    -2.831000000    -1.833000000    -5.005000000
O    -3.889000000     2.908000000     3.920000000
H    -4.169000000     3.123000000     4.809000000
H    -3.778000000     3.757000000     3.492000000
O    -0.401000000     3.699000000     3.682000000
H    -0.514000000     4.583000000     4.031000000
H    -1.071000000     3.179000000     4.125000000
O    -0.140000000     1.194000000    -6.213000000
H    -0.909000000     1.045000000    -6.764000000
H    -0.188000000     0.509000000    -5.546000000
O    -5.248000000     3.600000000    -1.362000000
H    -5.413000000     4.229000000    -2.064000000
H    -5.700000000     2.804000000    -1.643000000
O    -1.101000000    -4.418000000    -3.818000000
H    -0.681000000    -3.559000000    -3.766000000
H    -1.979000000    -4.277000000    -3.462000000
O    -3.363000000     3.504000000     6.871000000
H    -2.589000000     2.996000000     6.628000000
H    -3.152000000     3.862000000     7.734000000
O    -6.934000000     1.783000000    -2.601000000
H    -6.895000000     2.521000000    -3.209000000
H    -6.120000000     1.303000000    -2.753000000
O     1.580000000    -1.985000000    -5.522000000
H     1.043000000    -1.947000000    -4.731000000
H     2.451000000    -2.228000000    -5.209000000
O     3.693000000    -3.101000000    -0.385000000
H     3.295000000    -3.729000000    -0.988000000
H     4.391000000    -3.593000000     0.047000000
O     4.239000000     1.313000000     6.681000000
H     4.750000000     0.958000000     5.955000000
H     3.333000000     1.291000000     6.371000000
O     0.978000000     4.602000000     1.493000000
H     0.319000000     4.498000000     0.807000000
H     0.558000000     4.261000000     2.283000000
O     6.580000000    -2.566000000    -1.006000000
H     6.327000000    -3.266000000    -1.608000000
H     6.149000000    -1.785000000    -1.352000000
O     2.164000000     2.596000000     4.491000000
H     2.753000000     3.345000000     4.579000000
H     1.380000000     2.954000000     4.077000000
O    -5.140000000     1.130000000     2.215000000
H    -4.703000000     1.902000000     2.575000000
H    -4.794000000     1.051000000     1.326000000
O     4.058000000    -2.379000000    -4.284000000
H     4.813000000    -1.803000000    -4.402000000
H     4.351000000    -3.228000000    -4.614000000
O    -3.903000000     4.884000000    -3.516000000
H    -3.354000000     4.217000000    -3.104000000
H    -4.063000000     4.551000000    -4.399000000
O    -2.817000000    -0.124000000     3.879000000
H    -3.740000000     0.128000000     3.906000000
H    -2.381000000     0.610000000     3.445000000
O    -0.979000000    -2.152000000    -6.411000000
H    -0.048000000    -2.145000000    -6.187000000
H    -1.036000000    -2.717000000    -7.181000000
O    -0.058000000    -7.015000000    -3.003000000
H    -0.198000000    -6.148000000    -3.382000000
H    -0.381000000    -6.939000000    -2.105000000
O     2.158000000    -0.767000000    -7.956000000
H     2.790000000    -1.334000000    -7.514000000
H     1.595000000    -0.442000000    -7.253000000
O     2.466000000    -7.009000000    -0.936000000
H     1.982000000    -6.191000000    -1.056000000
H     2.346000000    -7.225000000    -0.011000000
O     1.702000000    -4.131000000     1.553000000
H     2.346000000    -3.468000000     1.306000000
H     1.418000000    -4.510000000     0.721000000
O     0.465000000    -0.326000000     7.684000000
H     0.536000000    -1.061000000     8.294000000
H     0.880000000    -0.641000000     6.881000000
O     1.024000000     3.684000000    -4.458000000
H     0.335000000     4.283000000    -4.744000000
H     0.728000000     2.821000000    -4.750000000
