158
-3037.21190
C     0.953000000    -0.666000000    -0.910000000
H     1.727000000    -1.273000000    -1.372000000
C     1.255000000    -0.097000000     0.324000000
H     2.283000000    -0.208000000     0.659000000
C     0.260000000     0.525000000     1.065000000
H     0.392000000     0.912000000     2.148000000
C    -1.018000000     0.565000000     0.567000000
H    -1.807000000     0.970000000     1.196000000
C    -1.364000000     0.036000000    -0.672000000
H    -2.359000000     0.163000000    -1.090000000
C    -0.330000000    -0.617000000    -1.424000000
C    -0.654000000    -1.354000000    -2.684000000
O    -1.647000000    -1.032000000    -3.247000000
O     0.112000000    -2.140000000    -3.161000000
O    -3.897000000    -2.079000000     2.799000000
H    -3.007000000    -1.747000000     2.680000000
H    -4.121000000    -1.848000000     3.700000000
O     3.671000000    -0.250000000     3.360000000
H     3.826000000     0.686000000     3.234000000
H     2.799000000    -0.298000000     3.752000000
O    -3.737000000    -4.052000000     0.615000000
H    -3.998000000    -3.424000000     1.287000000
H    -2.891000000    -3.731000000     0.302000000
O    -4.444000000    -2.425000000    -5.586000000
H    -4.867000000    -3.028000000    -6.198000000
H    -3.512000000    -2.636000000    -5.648000000
O    -5.510000000     1.869000000    -0.347000000
H    -5.603000000     2.746000000    -0.719000000
H    -6.274000000     1.766000000     0.220000000
O     5.721000000     0.920000000    -2.331000000
H     5.564000000     1.316000000    -1.474000000
H     4.861000000     0.911000000    -2.752000000
O     1.242000000    -3.019000000     5.332000000
H     1.231000000    -3.360000000     6.226000000
H     2.166000000    -2.847000000     5.152000000
O     4.120000000    -1.037000000     6.134000000
H     4.063000000    -1.992000000     6.164000000
H     4.074000000    -0.824000000     5.202000000
O     1.975000000     2.471000000    -1.970000000
H     2.369000000     1.899000000    -1.311000000
H     2.598000000     2.462000000    -2.698000000
O    -2.812000000     1.080000000    -4.427000000
H    -3.511000000     1.306000000    -3.813000000
H    -2.499000000     0.226000000    -4.129000000
O     6.769000000    -1.524000000    -0.441000000
H     7.046000000    -0.616000000    -0.324000000
H     6.100000000    -1.658000000     0.231000000
O    -1.504000000    -2.846000000     0.773000000
H    -1.483000000    -1.892000000     0.696000000
H    -0.673000000    -3.072000000     1.189000000
O     1.356000000     4.007000000     1.716000000
H     0.549000000     3.756000000     2.165000000
H     1.206000000     3.767000000     0.802000000
O    -5.850000000    -3.242000000    -1.390000000
H    -5.269000000    -3.486000000    -0.670000000
H    -5.338000000    -2.625000000    -1.913000000
O     0.406000000     4.287000000    -1.006000000
H     1.079000000     3.697000000    -1.344000000
H    -0.369000000     4.094000000    -1.534000000
O     1.122000000    -4.589000000    -2.365000000
H     1.547000000    -4.497000000    -1.513000000
H     0.816000000    -3.707000000    -2.577000000
O    -5.147000000     1.997000000     2.782000000
H    -4.846000000     2.331000000     1.937000000
H    -5.955000000     1.526000000     2.579000000
O     4.902000000     3.046000000    -0.110000000
H     4.208000000     3.705000000    -0.103000000
H     5.704000000     3.539000000     0.061000000
O     0.032000000     1.584000000    -3.934000000
H     0.550000000     1.607000000    -3.130000000
H    -0.828000000     1.269000000    -3.657000000
O     5.091000000    -1.737000000     1.720000000
H     5.468000000    -2.390000000     2.310000000
H     4.610000000    -1.143000000     2.295000000
O     3.374000000    -1.688000000    -4.888000000
H     4.132000000    -2.270000000    -4.939000000
H     2.760000000    -2.145000000    -4.314000000
O    -4.223000000    -1.874000000    -2.892000000
H    -3.294000000    -1.647000000    -2.859000000
H    -4.380000000    -2.108000000    -3.807000000
O     3.385000000     5.240000000     0.281000000
H     4.002000000     5.748000000     0.808000000
H     2.680000000     5.015000000     0.889000000
O     0.864000000     2.364000000     5.129000000
H     1.705000000     2.819000000     5.161000000
H     1.082000000     1.446000000     5.294000000
O     0.944000000    -1.178000000    -6.033000000
H     0.599000000    -0.813000000    -5.218000000
H     1.843000000    -1.428000000    -5.822000000
O    -0.084000000     5.367000000     5.203000000
H     0.603000000     5.150000000     5.833000000
H    -0.457000000     4.521000000     4.955000000
O    -1.734000000    -3.059000000    -6.115000000
H    -1.174000000    -2.310000000    -5.908000000
H    -1.553000000    -3.693000000    -5.421000000
O     1.527000000    -6.929000000    -3.981000000
H     1.951000000    -7.375000000    -3.249000000
H     1.197000000    -6.113000000    -3.606000000
O     2.893000000    -3.041000000     0.255000000
H     3.317000000    -3.862000000     0.005000000
H     3.614000000    -2.470000000     0.519000000
O     2.101000000     6.958000000     4.047000000
H     1.712000000     7.255000000     4.869000000
H     1.872000000     6.031000000     3.994000000
O     0.500000000    -2.822000000    -8.466000000
H     0.259000000    -2.079000000    -9.018000000
H     0.468000000    -2.478000000    -7.573000000
O    -0.923000000     3.242000000     2.946000000
H    -1.338000000     2.758000000     3.659000000
H    -1.487000000     3.083000000     2.189000000
O     4.423000000    -4.983000000    -0.995000000
H     4.663000000    -5.866000000    -0.716000000
H     5.237000000    -4.610000000    -1.335000000
O     4.587000000     1.600000000     6.050000000
H     5.527000000     1.710000000     6.193000000
H     4.406000000     0.701000000     6.325000000
O     3.530000000     2.621000000     2.552000000
H     2.658000000     2.749000000     2.179000000
H     4.130000000     2.842000000     1.840000000
O    -1.298000000     1.181000000    -7.319000000
H    -1.302000000     1.230000000    -6.363000000
H    -1.343000000     2.093000000    -7.606000000
O    -2.995000000     3.365000000     1.019000000
H    -3.592000000     2.855000000     0.471000000
H    -2.991000000     4.236000000     0.623000000
O    -1.695000000    -0.361000000     4.037000000
H    -1.956000000     0.555000000     3.938000000
H    -2.303000000    -0.715000000     4.685000000
O    -5.074000000     0.779000000    -2.801000000
H    -5.059000000     1.209000000    -1.946000000
H    -4.999000000    -0.154000000    -2.600000000
O     1.040000000    -0.619000000     4.288000000
H     1.074000000    -1.547000000     4.521000000
H     0.112000000    -0.445000000     4.130000000
O    -1.229000000    -4.514000000    -3.875000000
H    -1.240000000    -3.590000000    -3.624000000
H    -0.580000000    -4.912000000    -3.295000000
O    -4.040000000     2.128000000    -6.823000000
H    -4.843000000     1.663000000    -6.589000000
H    -3.353000000     1.682000000    -6.328000000
O    -1.922000000     3.698000000    -2.431000000
H    -2.124000000     3.151000000    -3.190000000
H    -2.658000000     4.309000000    -2.374000000
O     3.034000000    -5.193000000    -5.720000000
H     2.231000000    -4.904000000    -6.153000000
H     2.809000000    -6.041000000    -5.339000000
O     0.866000000    -3.722000000     2.021000000
H     1.500000000    -3.338000000     1.414000000
H     1.352000000    -4.414000000     2.469000000
O    -2.937000000     1.947000000     4.324000000
H    -3.698000000     1.964000000     3.744000000
H    -3.275000000     2.236000000     5.172000000
O     3.703000000     1.818000000    -4.187000000
H     4.150000000     2.504000000    -4.683000000
H     3.582000000     1.107000000    -4.817000000
O     3.316000000     3.999000000     5.008000000
H     3.561000000     3.809000000     4.102000000
H     3.807000000     3.362000000     5.527000000
