158
-3015.93566
C     0.572000000    -1.208000000    -0.636000000
H     1.031000000    -2.127000000    -0.992000000
C     0.643000000    -0.924000000     0.726000000
H     1.169000000    -1.596000000     1.400000000
C     0.060000000     0.286000000     1.219000000
H     0.021000000     0.496000000     2.294000000
C    -0.555000000     1.163000000     0.313000000
H    -1.035000000     2.079000000     0.647000000
C    -0.685000000     0.801000000    -1.037000000
H    -1.187000000     1.439000000    -1.760000000
C    -0.048000000    -0.321000000    -1.493000000
C    -0.075000000    -0.706000000    -2.982000000
O    -0.437000000     0.130000000    -3.850000000
O     0.319000000    -1.809000000    -3.252000000
O    -1.592000000    -4.020000000     4.402000000
H    -1.745000000    -4.808000000     3.880000000
H    -0.678000000    -4.091000000     4.678000000
O     1.228000000     6.516000000    -0.350000000
H     1.070000000     6.603000000    -1.290000000
H     1.346000000     5.576000000    -0.212000000
O     2.608000000     5.070000000     4.218000000
H     2.529000000     5.790000000     4.843000000
H     1.719000000     4.941000000     3.888000000
O    -4.374000000    -3.203000000    -4.777000000
H    -3.496000000    -2.822000000    -4.739000000
H    -4.955000000    -2.452000000    -4.898000000
O    -2.147000000    -2.183000000    -0.001000000
H    -1.547000000    -2.849000000    -0.338000000
H    -1.576000000    -1.471000000     0.288000000
O    -0.826000000    -3.156000000    -5.564000000
H    -0.028000000    -3.138000000    -6.093000000
H    -0.559000000    -2.801000000    -4.716000000
O    -3.268000000     0.378000000    -4.140000000
H    -2.315000000     0.327000000    -4.067000000
H    -3.593000000    -0.113000000    -3.386000000
O     2.885000000    -2.038000000     6.885000000
H     3.450000000    -2.650000000     7.356000000
H     2.906000000    -2.342000000     5.978000000
O     2.790000000     2.749000000    -5.261000000
H     3.395000000     3.045000000    -4.580000000
H     3.349000000     2.578000000    -6.019000000
O    -4.453000000     0.455000000     0.386000000
H    -4.346000000    -0.379000000     0.843000000
H    -5.401000000     0.560000000     0.299000000
O    -0.062000000     2.176000000     4.942000000
H     0.446000000     1.370000000     5.039000000
H    -0.857000000     1.905000000     4.482000000
O     0.525000000    -0.674000000     4.913000000
H     0.900000000    -1.393000000     4.405000000
H    -0.053000000    -1.103000000     5.544000000
O     3.875000000    -1.501000000     0.196000000
H     3.146000000    -2.006000000     0.556000000
H     3.694000000    -1.455000000    -0.743000000
O    -3.620000000     2.839000000    -0.738000000
H    -4.102000000     2.909000000    -1.562000000
H    -3.866000000     1.982000000    -0.389000000
O    -4.015000000    -2.928000000     4.241000000
H    -4.454000000    -3.349000000     4.980000000
H    -3.098000000    -3.190000000     4.327000000
O     1.696000000     3.709000000    -0.614000000
H     2.296000000     3.734000000     0.131000000
H     1.751000000     2.809000000    -0.936000000
O    -0.721000000     4.665000000    -2.098000000
H    -0.418000000     4.299000000    -2.929000000
H    -0.304000000     4.121000000    -1.430000000
O     2.714000000     1.271000000    -1.040000000
H     2.615000000     0.754000000    -1.839000000
H     3.016000000     0.642000000    -0.384000000
O     4.787000000    -4.910000000     0.154000000
H     5.449000000    -5.597000000     0.075000000
H     3.959000000    -5.383000000     0.230000000
O    -1.173000000    -3.598000000    -2.366000000
H    -0.480000000    -3.062000000    -2.750000000
H    -1.973000000    -3.092000000    -2.506000000
O     5.465000000    -3.489000000    -3.711000000
H     6.167000000    -4.111000000    -3.520000000
H     5.030000000    -3.353000000    -2.869000000
O     6.204000000     0.087000000     0.598000000
H     6.484000000    -0.192000000     1.470000000
H     5.477000000    -0.497000000     0.381000000
O    -2.056000000    -0.384000000    -8.985000000
H    -1.295000000    -0.950000000    -9.116000000
H    -1.985000000    -0.096000000    -8.075000000
O     3.550000000    -3.523000000    -1.727000000
H     3.884000000    -3.845000000    -0.890000000
H     3.499000000    -4.302000000    -2.281000000
O    -0.721000000     4.507000000    -6.936000000
H    -1.435000000     4.751000000    -7.525000000
H    -1.145000000     4.004000000    -6.241000000
O    -2.177000000     5.994000000     0.377000000
H    -1.840000000     5.468000000    -0.348000000
H    -2.756000000     5.400000000     0.855000000
O    -4.390000000     4.556000000     1.135000000
H    -4.639000000     4.102000000     1.941000000
H    -4.230000000     3.854000000     0.505000000
O    -2.350000000     1.704000000     3.335000000
H    -3.088000000     2.279000000     3.534000000
H    -2.354000000     1.630000000     2.381000000
O     1.656000000     0.216000000    -5.665000000
H     2.187000000     0.875000000    -5.219000000
H     0.999000000    -0.041000000    -5.018000000
O    -2.550000000    -0.113000000     5.563000000
H    -2.192000000     0.643000000     6.028000000
H    -2.465000000     0.114000000     4.637000000
O     4.044000000    -0.233000000     3.677000000
H     3.309000000    -0.835000000     3.795000000
H     3.672000000     0.507000000     3.196000000
O    -1.053000000     0.614000000    -6.518000000
H    -1.309000000     0.270000000    -5.662000000
H    -0.099000000     0.543000000    -6.529000000
O     2.450000000     0.839000000     6.639000000
H     2.322000000    -0.089000000     6.837000000
H     2.967000000     0.842000000     5.833000000
O    -2.692000000     5.241000000    -4.083000000
H    -2.674000000     6.187000000    -3.941000000
H    -2.026000000     4.896000000    -3.488000000
O    -0.428000000    -4.933000000    -0.130000000
H    -0.824000000    -4.676000000    -0.962000000
H    -0.612000000    -5.870000000    -0.057000000
O    -3.863000000    -1.259000000    -2.093000000
H    -3.357000000    -1.071000000    -1.303000000
H    -4.769000000    -1.076000000    -1.847000000
O    -1.236000000    -2.368000000     6.479000000
H    -1.884000000    -1.731000000     6.179000000
H    -1.371000000    -3.131000000     5.916000000
O     2.099000000    -2.562000000     3.796000000
H     2.027000000    -2.770000000     2.864000000
H     2.562000000    -3.310000000     4.173000000
O    -1.591000000    -5.824000000     2.382000000
H    -2.411000000    -6.278000000     2.186000000
H    -1.383000000    -5.346000000     1.580000000
O     1.293000000    -1.832000000    -7.287000000
H     1.811000000    -1.702000000    -8.081000000
H     1.589000000    -1.144000000    -6.691000000
O     1.798000000    -3.851000000     1.236000000
H     2.376000000    -4.614000000     1.243000000
H     1.036000000    -4.132000000     0.730000000
O     3.450000000    -0.331000000    -3.216000000
H     3.128000000    -1.225000000    -3.326000000
H     3.859000000    -0.119000000    -4.056000000
O    -3.664000000     2.720000000    -6.037000000
H    -3.895000000     3.450000000    -5.462000000
H    -3.562000000     1.973000000    -5.446000000
O     0.319000000     2.885000000    -3.930000000
H     0.090000000     1.959000000    -4.013000000
H     1.146000000     2.971000000    -4.403000000
O     0.370000000     3.840000000     7.173000000
H     1.254000000     3.798000000     7.536000000
H     0.398000000     3.267000000     6.407000000
O     0.928000000    -5.849000000    -3.681000000
H     1.817000000    -5.787000000    -3.332000000
H     0.546000000    -4.986000000    -3.520000000
O    -4.776000000     3.459000000     3.562000000
H    -5.281000000     4.150000000     3.990000000
H    -5.412000000     2.762000000     3.402000000
O    -0.112000000     4.880000000     3.778000000
H    -0.958000000     5.323000000     3.836000000
H    -0.312000000     3.958000000     3.940000000
