158
-3039.23369
C     0.369000000    -1.355000000    -0.539000000
H     0.716000000    -2.336000000    -0.850000000
C     0.995000000    -0.693000000     0.520000000
H     1.857000000    -1.090000000     1.050000000
C     0.580000000     0.557000000     0.905000000
H     1.200000000     1.064000000     1.550000000
C    -0.477000000     1.113000000     0.306000000
H    -0.844000000     2.056000000     0.702000000
C    -1.069000000     0.570000000    -0.823000000
H    -1.882000000     1.159000000    -1.241000000
C    -0.727000000    -0.730000000    -1.196000000
C    -1.398000000    -1.397000000    -2.417000000
O    -2.186000000    -0.690000000    -3.045000000
O    -1.154000000    -2.582000000    -2.709000000
O     6.491000000     0.996000000     5.652000000
H     7.190000000     0.618000000     5.117000000
H     5.683000000     0.695000000     5.237000000
O     0.359000000     3.899000000     2.408000000
H     0.497000000     3.085000000     2.892000000
H    -0.349000000     4.340000000     2.877000000
O    -5.522000000    -3.132000000    -5.777000000
H    -5.950000000    -2.757000000    -6.546000000
H    -5.157000000    -2.377000000    -5.314000000
O     5.073000000     2.712000000     2.154000000
H     5.372000000     1.803000000     2.136000000
H     4.253000000     2.705000000     1.660000000
O    -2.152000000    -2.915000000     2.289000000
H    -2.993000000    -3.216000000     1.946000000
H    -1.555000000    -3.648000000     2.137000000
O    -2.182000000    -4.094000000    -4.610000000
H    -2.748000000    -3.425000000    -4.995000000
H    -1.759000000    -3.654000000    -3.873000000
O    -4.734000000    -1.238000000    -4.292000000
H    -3.958000000    -0.851000000    -3.888000000
H    -5.249000000    -1.568000000    -3.555000000
O     0.031000000     1.471000000    -6.336000000
H     0.745000000     1.831000000    -5.809000000
H     0.165000000     1.843000000    -7.208000000
O    -1.999000000     1.720000000     4.213000000
H    -1.463000000     2.133000000     4.890000000
H    -1.667000000     0.824000000     4.158000000
O    -1.344000000    -0.945000000     4.026000000
H    -0.425000000    -1.192000000     3.917000000
H    -1.828000000    -1.601000000     3.524000000
O     3.745000000    -2.418000000    -0.581000000
H     3.069000000    -3.095000000    -0.536000000
H     3.747000000    -2.143000000    -1.498000000
O     3.025000000     2.975000000     0.274000000
H     3.038000000     2.383000000    -0.478000000
H     2.486000000     3.713000000    -0.012000000
O     1.567000000     5.425000000     4.843000000
H     2.461000000     5.330000000     4.514000000
H     1.565000000     4.949000000     5.673000000
O    -4.670000000     0.975000000    -1.402000000
H    -5.519000000     0.534000000    -1.381000000
H    -4.048000000     0.310000000    -1.108000000
O     0.587000000    -5.186000000    -3.423000000
H     0.369000000    -4.434000000    -3.973000000
H     0.784000000    -5.888000000    -4.043000000
O     0.975000000     4.753000000    -0.192000000
H     0.669000000     4.382000000     0.636000000
H     1.196000000     5.660000000     0.019000000
O    -3.255000000     5.373000000    -1.138000000
H    -2.526000000     5.703000000    -1.665000000
H    -3.703000000     4.752000000    -1.712000000
O    -0.129000000     2.985000000     5.961000000
H     0.719000000     3.398000000     6.125000000
H    -0.285000000     2.443000000     6.735000000
O     1.910000000     1.693000000    -1.896000000
H     1.280000000     1.141000000    -1.433000000
H     2.120000000     1.203000000    -2.691000000
O    -3.364000000    -3.674000000    -1.740000000
H    -2.672000000    -3.149000000    -2.142000000
H    -4.159000000    -3.154000000    -1.859000000
O     3.268000000    -1.795000000    -3.501000000
H     3.560000000    -2.638000000    -3.847000000
H     2.319000000    -1.802000000    -3.622000000
O     5.564000000    -1.070000000     0.738000000
H     5.209000000    -1.030000000     1.626000000
H     4.865000000    -1.466000000     0.218000000
O     6.014000000     4.175000000     0.062000000
H     5.537000000     3.605000000     0.665000000
H     5.332000000     4.587000000    -0.469000000
O     2.148000000    -4.452000000    -1.306000000
H     2.205000000    -5.306000000    -0.878000000
H     1.615000000    -4.611000000    -2.085000000
O     5.115000000    -4.374000000     2.871000000
H     4.228000000    -4.709000000     2.740000000
H     5.536000000    -4.470000000     2.016000000
O    -4.550000000     2.967000000     0.651000000
H    -5.455000000     2.836000000     0.934000000
H    -4.481000000     2.470000000    -0.164000000
O    -3.159000000    -0.506000000     1.314000000
H    -2.416000000     0.095000000     1.267000000
H    -2.761000000    -1.373000000     1.384000000
O    -1.389000000     1.692000000    -4.084000000
H    -1.050000000     1.449000000    -4.946000000
H    -1.518000000     0.857000000    -3.634000000
O     4.089000000     3.775000000     5.354000000
H     4.022000000     2.938000000     4.894000000
H     4.924000000     4.141000000     5.065000000
O     0.816000000     3.941000000    -2.917000000
H     0.969000000     3.015000000    -3.101000000
H     0.616000000     3.970000000    -1.981000000
O     1.790000000    -0.900000000     3.948000000
H     1.393000000    -1.683000000     3.567000000
H     1.990000000    -1.148000000     4.851000000
O     1.319000000     0.387000000     6.659000000
H     0.445000000     0.001000000     6.608000000
H     1.913000000    -0.364000000     6.663000000
O     4.162000000     0.559000000     4.324000000
H     4.262000000    -0.379000000     4.162000000
H     3.222000000     0.718000000     4.240000000
O    -2.307000000     6.413000000     1.259000000
H    -2.557000000     6.021000000     0.423000000
H    -2.552000000     5.758000000     1.913000000
O    -4.477000000    -4.063000000     1.077000000
H    -4.035000000    -4.236000000     0.246000000
H    -4.765000000    -4.924000000     1.379000000
O    -6.268000000    -2.346000000    -2.393000000
H    -6.911000000    -2.969000000    -2.730000000
H    -6.676000000    -1.982000000    -1.607000000
O     0.864000000    -3.227000000     3.187000000
H     0.583000000    -3.684000000     2.395000000
H     1.253000000    -3.910000000     3.733000000
O    -0.585000000    -1.076000000    -6.880000000
H    -1.230000000    -0.990000000    -7.583000000
H    -0.239000000    -0.192000000    -6.763000000
O    -0.112000000    -4.867000000     1.108000000
H     0.225000000    -5.741000000     1.307000000
H    -0.350000000    -4.907000000     0.182000000
O    -4.572000000    -6.084000000    -3.847000000
H    -4.492000000    -5.955000000    -4.792000000
H    -3.787000000    -5.676000000    -3.482000000
O     0.609000000    -1.902000000    -4.542000000
H    -0.026000000    -2.198000000    -3.890000000
H     0.091000000    -1.762000000    -5.334000000
O    -5.573000000     0.601000000    -6.056000000
H    -5.233000000    -0.016000000    -5.408000000
H    -5.034000000     1.385000000    -5.947000000
O    -4.082000000     3.311000000    -2.916000000
H    -4.206000000     2.748000000    -2.152000000
H    -3.508000000     2.807000000    -3.494000000
O    -0.161000000    -3.259000000     6.332000000
H    -0.183000000    -2.946000000     5.428000000
H    -0.361000000    -4.193000000     6.268000000
O    -1.831000000     5.157000000     5.273000000
H    -2.211000000     4.434000000     4.773000000
H    -1.156000000     4.747000000     5.812000000
O    -1.183000000    -5.263000000    -1.325000000
H    -0.533000000    -5.051000000    -1.995000000
H    -1.955000000    -4.754000000    -1.571000000
O     4.481000000    -1.972000000     3.433000000
H     5.015000000    -2.765000000     3.476000000
H     3.584000000    -2.292000000     3.341000000
O    -2.766000000     3.914000000     2.524000000
H    -3.356000000     3.715000000     1.796000000
H    -2.483000000     3.058000000     2.844000000
