158
-3040.23917
C    -0.211000000    -1.388000000    -0.368000000
H    -0.282000000    -2.466000000    -0.492000000
C     0.336000000    -0.934000000     0.830000000
H     0.621000000    -1.608000000     1.634000000
C     0.466000000     0.389000000     1.073000000
H     0.771000000     0.773000000     2.089000000
C     0.201000000     1.300000000     0.080000000
H     0.242000000     2.339000000     0.395000000
C    -0.251000000     0.835000000    -1.150000000
H    -0.416000000     1.501000000    -1.993000000
C    -0.510000000    -0.519000000    -1.367000000
C    -1.026000000    -0.952000000    -2.749000000
O    -1.666000000    -0.201000000    -3.522000000
O    -0.941000000    -2.166000000    -3.028000000
O    -0.088000000     0.257000000     8.255000000
H     0.265000000     0.552000000     7.416000000
H     0.681000000     0.150000000     8.815000000
O     2.804000000     3.160000000     3.232000000
H     2.410000000     4.010000000     3.428000000
H     2.738000000     2.671000000     4.053000000
O    -4.291000000    -3.073000000    -6.547000000
H    -4.197000000    -2.734000000    -7.437000000
H    -3.872000000    -2.414000000    -5.994000000
O     4.408000000     2.786000000    -1.462000000
H     4.248000000     2.313000000    -0.645000000
H     4.589000000     3.685000000    -1.188000000
O    -2.411000000    -3.548000000     3.217000000
H    -3.172000000    -3.112000000     2.834000000
H    -1.794000000    -3.635000000     2.491000000
O    -0.905000000    -4.372000000    -4.526000000
H    -0.973000000    -3.965000000    -5.389000000
H    -1.147000000    -3.677000000    -3.913000000
O    -3.761000000    -0.731000000    -5.214000000
H    -2.971000000    -0.467000000    -4.742000000
H    -4.243000000    -1.273000000    -4.591000000
O    -3.712000000    -1.450000000    -0.529000000
H    -3.344000000    -0.691000000    -0.076000000
H    -3.209000000    -2.193000000    -0.196000000
O     0.317000000    -0.290000000     5.525000000
H     1.094000000    -0.692000000     5.136000000
H    -0.263000000    -1.027000000     5.717000000
O     2.579000000    -2.545000000    -1.915000000
H     2.292000000    -1.728000000    -2.324000000
H     1.856000000    -3.154000000    -2.064000000
O    -2.499000000    -3.878000000     0.300000000
H    -3.271000000    -4.346000000     0.618000000
H    -2.427000000    -4.133000000    -0.620000000
O     4.105000000    -0.389000000    -0.631000000
H     3.484000000    -0.381000000    -1.360000000
H     3.782000000     0.287000000    -0.035000000
O    -3.492000000     1.687000000    -3.418000000
H    -4.219000000     1.255000000    -3.867000000
H    -2.809000000     1.019000000    -3.371000000
O     2.320000000    -4.290000000    -4.553000000
H     1.680000000    -4.983000000    -4.716000000
H     3.169000000    -4.723000000    -4.645000000
O     3.268000000     2.011000000     0.889000000
H     3.209000000     2.666000000     1.585000000
H     2.370000000     1.919000000     0.570000000
O    -0.569000000     6.176000000    -1.677000000
H    -0.062000000     6.269000000    -2.484000000
H    -1.420000000     5.848000000    -1.966000000
O     0.146000000     4.249000000     4.303000000
H     0.539000000     4.279000000     5.175000000
H    -0.182000000     3.354000000     4.219000000
O     3.112000000     0.097000000    -3.069000000
H     3.640000000     0.431000000    -3.795000000
H     2.360000000    -0.318000000    -3.492000000
O     0.030000000    -6.761000000    -5.633000000
H    -0.261000000    -6.037000000    -5.080000000
H    -0.779000000    -7.186000000    -5.918000000
O    -3.073000000    -3.353000000    -2.435000000
H    -2.300000000    -2.874000000    -2.732000000
H    -3.744000000    -2.679000000    -2.323000000
O     2.679000000     0.227000000    -6.277000000
H     3.494000000    -0.272000000    -6.319000000
H     2.085000000    -0.326000000    -5.770000000
O     1.792000000    -1.710000000    -4.662000000
H     0.870000000    -1.567000000    -4.877000000
H     1.938000000    -2.640000000    -4.836000000
O     1.483000000     6.270000000     2.533000000
H     1.853000000     6.098000000     3.399000000
H     0.959000000     5.493000000     2.338000000
O     1.266000000    -4.845000000    -0.862000000
H     1.558000000    -5.531000000    -0.261000000
H     1.460000000    -4.028000000    -0.403000000
O    -2.109000000     3.852000000    -5.205000000
H    -2.140000000     2.948000000    -5.520000000
H    -2.666000000     4.337000000    -5.813000000
O    -2.806000000     3.438000000     0.439000000
H    -3.725000000     3.335000000     0.689000000
H    -2.834000000     3.622000000    -0.500000000
O    -2.436000000     0.367000000     1.190000000
H    -2.555000000     1.171000000     1.695000000
H    -1.564000000     0.454000000     0.803000000
O     2.186000000     2.616000000    -5.043000000
H     2.372000000     1.863000000    -5.604000000
H     1.271000000     2.504000000    -4.787000000
O    -3.258000000     3.462000000     5.494000000
H    -2.910000000     3.697000000     6.354000000
H    -2.590000000     2.891000000     5.113000000
O     1.802000000     6.103000000    -0.502000000
H     0.976000000     6.125000000    -0.984000000
H     1.569000000     5.754000000     0.358000000
O     2.533000000    -1.090000000     4.064000000
H     2.748000000    -0.959000000     3.141000000
H     3.098000000    -1.811000000     4.342000000
O     2.803000000     1.443000000     5.364000000
H     2.796000000     1.219000000     6.295000000
H     2.135000000     0.878000000     4.976000000
O     5.563000000     1.276000000     3.834000000
H     5.509000000     0.553000000     3.209000000
H     4.660000000     1.412000000     4.121000000
O    -0.836000000     5.239000000     1.030000000
H    -0.613000000     5.924000000     0.400000000
H    -1.427000000     4.657000000     0.552000000
O    -5.525000000    -1.452000000    -2.419000000
H    -6.048000000    -0.657000000    -2.316000000
H    -4.954000000    -1.465000000    -1.651000000
O    -3.587000000    -0.514000000     4.582000000
H    -3.979000000    -1.343000000     4.309000000
H    -3.277000000    -0.677000000     5.473000000
O     2.949000000    -3.807000000     2.167000000
H     2.036000000    -3.576000000     1.999000000
H     2.915000000    -4.387000000     2.928000000
O    -0.991000000    -2.732000000     5.442000000
H    -1.499000000    -3.028000000     4.687000000
H    -0.656000000    -3.537000000     5.836000000
O    -1.274000000    -3.081000000    -6.933000000
H    -2.124000000    -3.510000000    -6.829000000
H    -1.284000000    -2.744000000    -7.829000000
O     0.081000000    -4.453000000     1.883000000
H    -0.297000000    -5.224000000     2.304000000
H    -0.483000000    -4.292000000     1.127000000
O    -4.273000000    -5.141000000    -4.415000000
H    -4.448000000    -4.329000000    -4.890000000
H    -3.601000000    -4.904000000    -3.775000000
O    -0.248000000    -0.470000000    -5.786000000
H    -0.729000000    -0.071000000    -5.061000000
H    -0.873000000    -1.076000000    -6.184000000
O    -3.454000000     1.804000000    -6.810000000
H    -3.509000000     0.940000000    -6.400000000
H    -2.861000000     1.680000000    -7.551000000
O    -2.613000000     4.000000000    -2.372000000
H    -2.928000000     3.106000000    -2.503000000
H    -2.320000000     4.280000000    -3.239000000
O    -1.762000000     5.867000000     3.311000000
H    -1.394000000     5.372000000     4.043000000
H    -1.250000000     5.589000000     2.552000000
O    -1.329000000    -5.514000000    -1.592000000
H    -0.386000000    -5.409000000    -1.461000000
H    -1.494000000    -5.130000000    -2.454000000
O     5.158000000    -1.846000000     1.840000000
H     5.417000000    -1.775000000     0.922000000
H     4.239000000    -2.113000000     1.810000000
O    -1.518000000     1.584000000     4.600000000
H    -2.181000000     0.942000000     4.347000000
H    -0.751000000     1.059000000     4.830000000
