158
-3036.81934
C    -1.135000000     0.575000000     0.802000000
H    -1.908000000     1.007000000     1.431000000
C    -0.649000000    -0.723000000     0.925000000
H    -1.140000000    -1.353000000     1.663000000
C     0.397000000    -1.107000000     0.072000000
H     0.799000000    -2.064000000     0.199000000
C     0.937000000    -0.300000000    -0.877000000
H     1.708000000    -0.645000000    -1.561000000
C     0.496000000     0.983000000    -0.971000000
H     0.868000000     1.709000000    -1.690000000
C    -0.545000000     1.427000000    -0.169000000
C    -0.875000000     2.840000000    -0.161000000
O    -0.614000000     3.506000000    -1.154000000
O    -1.766000000     3.240000000     0.568000000
O     2.032000000    -5.079000000    -2.645000000
H     2.288000000    -5.890000000    -3.085000000
H     2.394000000    -5.161000000    -1.763000000
O     3.247000000    -2.699000000    -3.928000000
H     3.985000000    -3.280000000    -4.111000000
H     2.536000000    -3.288000000    -3.676000000
O    -4.366000000     1.095000000     2.963000000
H    -4.149000000     0.605000000     2.170000000
H    -4.173000000     2.006000000     2.741000000
O    -2.687000000     2.337000000    -2.901000000
H    -2.193000000     3.076000000    -2.547000000
H    -2.025000000     1.780000000    -3.310000000
O     0.481000000    -2.055000000     6.727000000
H     0.288000000    -1.631000000     5.891000000
H    -0.332000000    -2.502000000     6.963000000
O     0.287000000     6.386000000    -4.561000000
H     0.344000000     6.183000000    -5.494000000
H     0.645000000     5.612000000    -4.125000000
O    -4.184000000     4.617000000     5.064000000
H    -4.015000000     4.232000000     4.204000000
H    -4.674000000     5.417000000     4.876000000
O     3.499000000     2.950000000     1.162000000
H     3.448000000     2.222000000     0.544000000
H     3.349000000     2.548000000     2.018000000
O     6.601000000    -2.242000000     1.598000000
H     5.807000000    -1.775000000     1.857000000
H     7.047000000    -1.641000000     1.001000000
O    -1.491000000     6.026000000    -1.523000000
H    -1.100000000     6.047000000    -2.397000000
H    -1.256000000     5.165000000    -1.177000000
O    -0.746000000     3.735000000    -5.603000000
H    -1.204000000     2.994000000    -6.000000000
H    -0.656000000     4.369000000    -6.314000000
O     1.109000000     1.824000000     2.625000000
H     1.025000000     1.471000000     1.740000000
H     0.420000000     2.486000000     2.686000000
O    -1.693000000    -4.622000000    -1.690000000
H    -1.418000000    -5.405000000    -2.166000000
H    -1.500000000    -4.818000000    -0.773000000
O     4.958000000     4.114000000    -1.102000000
H     4.507000000     3.771000000    -1.873000000
H     4.594000000     3.615000000    -0.370000000
O    -4.266000000     5.577000000    -2.920000000
H    -3.698000000     4.821000000    -2.770000000
H    -3.668000000     6.323000000    -2.954000000
O     3.354000000     2.704000000    -2.691000000
H     2.537000000     3.132000000    -2.945000000
H     3.479000000     2.017000000    -3.346000000
O    -5.440000000     4.922000000     0.936000000
H    -6.074000000     4.552000000     0.321000000
H    -5.294000000     5.814000000     0.621000000
O    -6.645000000     3.885000000    -1.180000000
H    -6.653000000     4.447000000    -1.955000000
H    -5.968000000     3.234000000    -1.364000000
O     1.612000000     4.832000000     0.216000000
H     2.152000000     4.107000000     0.531000000
H     0.770000000     4.428000000     0.003000000
O     3.385000000     0.414000000    -4.422000000
H     2.526000000     0.161000000    -4.761000000
H     3.740000000    -0.391000000    -4.046000000
O     0.817000000     3.754000000    -3.569000000
H     0.338000000     3.667000000    -2.745000000
H     0.151000000     3.635000000    -4.246000000
O    -4.144000000    -0.214000000     0.530000000
H    -3.508000000    -0.634000000    -0.048000000
H    -4.964000000    -0.677000000     0.361000000
O    -5.313000000     0.427000000     5.457000000
H    -4.949000000     1.131000000     5.994000000
H    -4.977000000     0.599000000     4.577000000
O    -0.951000000    -2.971000000     3.955000000
H    -0.641000000    -2.070000000     4.045000000
H    -1.794000000    -2.891000000     3.508000000
O    -0.465000000     1.651000000     5.749000000
H    -0.666000000     2.337000000     5.112000000
H    -0.766000000     2.006000000     6.585000000
O     1.059000000    -4.358000000     2.618000000
H     0.256000000    -4.015000000     3.009000000
H     0.794000000    -4.655000000     1.748000000
O     3.940000000     0.871000000    -0.766000000
H     3.802000000     1.540000000    -1.437000000
H     4.307000000     0.127000000    -1.242000000
O     3.984000000    -6.531000000     0.060000000
H     3.049000000    -6.554000000     0.262000000
H     4.352000000    -7.270000000     0.544000000
O     4.311000000    -0.532000000     1.873000000
H     4.081000000    -0.314000000     0.969000000
H     3.599000000    -1.097000000     2.172000000
O     0.342000000    -0.659000000     4.339000000
H     0.529000000    -0.326000000     3.461000000
H    -0.140000000     0.049000000     4.766000000
O     2.999000000    -2.657000000     2.913000000
H     2.550000000    -2.394000000     3.716000000
H     2.507000000    -3.417000000     2.602000000
O     1.257000000     7.676000000     0.697000000
H     0.415000000     8.085000000     0.895000000
H     1.027000000     6.837000000     0.298000000
O    -0.555000000     0.856000000    -4.046000000
H    -0.237000000     0.759000000    -4.943000000
H    -0.638000000    -0.041000000    -3.723000000
O     1.153000000    -1.353000000    -5.590000000
H     1.920000000    -1.926000000    -5.566000000
H     0.496000000    -1.810000000    -5.065000000
O     4.479000000    -1.486000000    -1.674000000
H     4.443000000    -2.245000000    -1.093000000
H     3.732000000    -1.597000000    -2.261000000
O    -0.544000000     3.998000000     2.877000000
H    -0.929000000     4.707000000     3.393000000
H    -1.171000000     3.848000000     2.170000000
O     4.797000000    -3.691000000    -0.285000000
H     4.921000000    -4.584000000     0.038000000
H     5.472000000    -3.179000000     0.160000000
O    -1.136000000    -5.207000000     0.890000000
H    -1.263000000    -6.043000000     1.338000000
H    -1.547000000    -4.562000000     1.465000000
O    -0.141000000    -3.584000000    -3.906000000
H     0.642000000    -4.097000000    -3.707000000
H    -0.813000000    -3.937000000    -3.322000000
O    -3.690000000     7.257000000    -0.034000000
H    -3.471000000     7.880000000    -0.726000000
H    -3.416000000     6.407000000    -0.380000000
O    -3.617000000     7.450000000     2.679000000
H    -4.171000000     6.828000000     3.150000000
H    -3.715000000     7.210000000     1.758000000
O     1.218000000    -6.593000000     0.328000000
H     1.146000000    -7.547000000     0.316000000
H     0.366000000    -6.291000000     0.642000000
O    -3.164000000    -3.305000000     2.302000000
H    -3.480000000    -3.408000000     1.405000000
H    -3.575000000    -4.021000000     2.785000000
O     1.194000000     7.924000000    -2.664000000
H     0.825000000     7.312000000    -3.301000000
H     1.987000000     7.492000000    -2.347000000
O    -4.866000000     1.807000000    -1.124000000
H    -4.037000000     2.022000000    -1.552000000
H    -4.636000000     1.138000000    -0.479000000
O    -2.003000000    -1.721000000    -1.704000000
H    -1.972000000    -2.673000000    -1.804000000
H    -1.209000000    -1.506000000    -1.216000000
O    -3.604000000     3.622000000     2.386000000
H    -2.873000000     3.426000000     1.799000000
H    -4.272000000     4.005000000     1.816000000
O    -1.119000000    -6.961000000    -3.021000000
H    -1.713000000    -7.707000000    -2.935000000
H    -0.276000000    -7.289000000    -2.708000000
