158
-3044.39150
C    -0.507000000    -1.382000000     0.035000000
H    -0.700000000    -2.434000000     0.229000000
C     0.231000000    -0.745000000     1.107000000
H     0.522000000    -1.314000000     1.987000000
C     0.579000000     0.590000000     0.948000000
H     1.119000000     1.200000000     1.683000000
C     0.089000000     1.297000000    -0.155000000
H     0.295000000     2.359000000    -0.265000000
C    -0.626000000     0.669000000    -1.199000000
H    -0.863000000     1.143000000    -2.148000000
C    -0.933000000    -0.734000000    -1.160000000
C    -1.469000000    -1.457000000    -2.342000000
O    -2.006000000    -0.865000000    -3.261000000
O    -1.214000000    -2.660000000    -2.526000000
O     2.260000000     6.472000000    -0.354000000
H     1.839000000     6.431000000    -1.212000000
H     1.950000000     5.690000000     0.103000000
O     5.625000000     0.868000000     2.355000000
H     6.226000000     0.131000000     2.247000000
H     5.563000000     1.257000000     1.483000000
O     5.471000000     4.973000000     0.418000000
H     4.932000000     4.825000000     1.195000000
H     6.095000000     5.649000000     0.684000000
O     6.060000000     2.430000000     0.109000000
H     5.982000000     3.382000000     0.166000000
H     5.312000000     2.160000000    -0.424000000
O     4.153000000     2.017000000    -1.816000000
H     3.417000000     1.408000000    -1.759000000
H     3.746000000     2.880000000    -1.893000000
O    -1.089000000    -6.023000000    -4.128000000
H    -0.478000000    -5.479000000    -4.625000000
H    -1.761000000    -5.414000000    -3.825000000
O    -2.557000000    -4.914000000    -1.551000000
H    -1.858000000    -4.298000000    -1.772000000
H    -3.344000000    -4.533000000    -1.940000000
O     2.638000000     2.381000000    -5.341000000
H     3.529000000     2.671000000    -5.148000000
H     2.128000000     2.645000000    -4.575000000
O    -3.378000000    -2.850000000     2.763000000
H    -4.075000000    -3.442000000     3.045000000
H    -2.571000000    -3.274000000     3.053000000
O    -1.009000000     0.883000000     5.281000000
H    -0.160000000     0.471000000     5.120000000
H    -0.860000000     1.449000000     6.039000000
O     1.954000000    -5.479000000     2.543000000
H     2.298000000    -5.521000000     1.651000000
H     2.709000000    -5.664000000     3.101000000
O     3.028000000    -0.459000000    -4.103000000
H     2.589000000     0.299000000    -4.491000000
H     2.818000000    -0.404000000    -3.170000000
O    -2.138000000    -2.742000000    -5.160000000
H    -1.288000000    -2.662000000    -5.592000000
H    -2.078000000    -2.161000000    -4.402000000
O     2.636000000    -0.292000000    -1.219000000
H     2.068000000    -0.093000000    -0.475000000
H     2.919000000    -1.194000000    -1.069000000
O    -1.048000000     4.665000000    -3.707000000
H    -1.333000000     4.658000000    -4.621000000
H    -1.811000000     4.361000000    -3.216000000
O     0.385000000     6.139000000     4.484000000
H    -0.184000000     6.539000000     5.141000000
H    -0.164000000     6.067000000     3.703000000
O     3.203000000    -2.950000000    -1.586000000
H     2.547000000    -3.084000000    -2.270000000
H     4.031000000    -3.200000000    -1.997000000
O    -0.029000000    -5.165000000     4.744000000
H    -0.542000000    -4.357000000     4.744000000
H     0.378000000    -5.190000000     3.878000000
O     3.033000000    -5.156000000     0.121000000
H     2.821000000    -4.422000000    -0.457000000
H     3.307000000    -5.856000000    -0.472000000
O     1.205000000    -3.663000000    -3.345000000
H     0.297000000    -3.400000000    -3.193000000
H     1.367000000    -3.444000000    -4.263000000
O     0.977000000     4.787000000     1.291000000
H     0.236000000     5.381000000     1.414000000
H     0.909000000     4.166000000     2.015000000
O    -0.197000000    -2.118000000    -7.399000000
H     0.048000000    -1.201000000    -7.275000000
H    -0.351000000    -2.199000000    -8.340000000
O    -4.867000000     2.804000000    -3.905000000
H    -4.482000000     3.147000000    -3.098000000
H    -4.403000000     3.262000000    -4.605000000
O     7.016000000     4.230000000     3.357000000
H     7.294000000     3.492000000     3.899000000
H     6.190000000     3.942000000     2.967000000
O    -4.710000000    -0.884000000    -2.624000000
H    -5.392000000    -0.520000000    -3.188000000
H    -3.890000000    -0.579000000    -3.012000000
O    -3.161000000    -0.209000000     1.320000000
H    -3.276000000    -1.000000000     1.847000000
H    -2.443000000    -0.421000000     0.723000000
O     1.155000000     2.921000000    -3.081000000
H     0.479000000     3.598000000    -3.057000000
H     0.758000000     2.203000000    -3.574000000
O    -6.088000000     0.579000000    -4.552000000
H    -7.036000000     0.668000000    -4.454000000
H    -5.756000000     1.474000000    -4.487000000
O     3.718000000     4.325000000     2.289000000
H     2.885000000     4.080000000     1.885000000
H     3.590000000     4.156000000     3.222000000
O    -3.221000000     4.101000000    -1.942000000
H    -3.422000000     3.520000000    -1.209000000
H    -3.784000000     4.863000000    -1.804000000
O     0.856000000    -1.047000000     4.630000000
H     1.324000000    -1.462000000     5.354000000
H     1.413000000    -1.197000000     3.866000000
O    -1.370000000     2.679000000    -6.264000000
H    -1.142000000     2.334000000    -7.127000000
H    -1.001000000     2.047000000    -5.648000000
O     4.120000000     0.536000000     5.562000000
H     3.544000000    -0.010000000     5.028000000
H     5.002000000     0.228000000     5.355000000
O     0.642000000     3.193000000     3.451000000
H    -0.273000000     2.952000000     3.306000000
H     0.612000000     3.833000000     4.162000000
O    -1.991000000     2.024000000     2.891000000
H    -1.522000000     1.664000000     3.644000000
H    -2.404000000     1.265000000     2.481000000
O     3.440000000    -2.718000000     1.670000000
H     4.197000000    -3.298000000     1.584000000
H     2.979000000    -2.802000000     0.836000000
O     3.117000000     3.335000000     4.696000000
H     2.342000000     2.851000000     4.412000000
H     3.678000000     2.673000000     5.099000000
O    -0.001000000    -4.884000000    -6.415000000
H     0.047000000    -4.010000000    -6.805000000
H    -0.153000000    -5.469000000    -7.158000000
O    -1.378000000    -2.808000000     4.882000000
H    -0.642000000    -2.274000000     4.584000000
H    -2.044000000    -2.173000000     5.145000000
O    -0.486000000     0.782000000    -4.853000000
H    -1.082000000     0.282000000    -4.295000000
H    -0.146000000     0.139000000    -5.476000000
O     0.509000000     6.617000000    -2.700000000
H    -0.163000000     5.981000000    -2.941000000
H     0.245000000     7.424000000    -3.141000000
O    -3.607000000     1.991000000    -0.337000000
H    -3.554000000     1.556000000    -1.188000000
H    -3.507000000     1.284000000     0.300000000
O    -3.950000000     4.232000000     2.323000000
H    -4.672000000     3.782000000     2.762000000
H    -3.216000000     3.619000000     2.380000000
O    -2.255000000    -7.387000000    -1.030000000
H    -1.824000000    -7.385000000    -0.176000000
H    -2.428000000    -6.463000000    -1.213000000
O     3.146000000    -0.514000000     3.217000000
H     3.370000000    -1.306000000     2.728000000
H     3.813000000     0.122000000     2.960000000
O    -6.437000000    -1.885000000    -0.677000000
H    -6.925000000    -2.578000000    -1.122000000
H    -5.898000000    -1.493000000    -1.364000000
O    -4.597000000    -3.906000000    -3.490000000
H    -4.958000000    -3.667000000    -4.343000000
H    -4.607000000    -3.090000000    -2.989000000
O    -4.481000000    -0.580000000    -6.416000000
H    -3.739000000    -0.914000000    -5.912000000
H    -4.996000000    -0.080000000    -5.783000000
