158
-3030.72851
C     0.278000000    -1.134000000    -0.960000000
H     0.580000000    -1.985000000    -1.565000000
C     0.907000000    -0.982000000     0.299000000
H     1.704000000    -1.666000000     0.580000000
C     0.577000000     0.115000000     1.079000000
H     1.041000000     0.358000000     2.110000000
C    -0.479000000     0.978000000     0.697000000
H    -0.758000000     1.781000000     1.374000000
C    -1.058000000     0.780000000    -0.538000000
H    -1.824000000     1.490000000    -0.842000000
C    -0.762000000    -0.220000000    -1.411000000
C    -1.396000000    -0.330000000    -2.771000000
O    -2.043000000     0.622000000    -3.162000000
O    -1.384000000    -1.372000000    -3.428000000
O     6.231000000     1.865000000     1.801000000
H     6.600000000     1.024000000     1.532000000
H     6.739000000     2.516000000     1.318000000
O    -0.915000000    -1.079000000    -6.487000000
H    -1.098000000    -1.450000000    -5.623000000
H    -1.053000000    -0.138000000    -6.377000000
O    -1.537000000    -3.922000000    -2.807000000
H    -1.328000000    -3.015000000    -3.032000000
H    -1.970000000    -3.863000000    -1.955000000
O     2.129000000     3.353000000     6.396000000
H     1.460000000     3.973000000     6.106000000
H     2.930000000     3.874000000     6.452000000
O    -1.139000000    -2.528000000     2.320000000
H    -0.637000000    -1.837000000     1.889000000
H    -2.009000000    -2.149000000     2.447000000
O    -4.470000000     3.921000000     4.602000000
H    -3.920000000     3.148000000     4.474000000
H    -5.301000000     3.574000000     4.927000000
O     3.215000000    -0.366000000     4.368000000
H     4.034000000    -0.429000000     4.858000000
H     3.483000000    -0.389000000     3.449000000
O     6.654000000    -0.997000000     1.126000000
H     6.478000000    -1.132000000     0.195000000
H     6.707000000    -1.881000000     1.491000000
O     1.645000000    -6.073000000     0.500000000
H     1.384000000    -6.988000000     0.611000000
H     0.881000000    -5.652000000     0.107000000
O     0.635000000    -3.525000000    -6.627000000
H     1.407000000    -3.366000000    -6.084000000
H     0.124000000    -2.719000000    -6.559000000
O    -1.220000000    -6.798000000    -0.771000000
H    -1.957000000    -7.391000000    -0.916000000
H    -1.626000000    -5.964000000    -0.534000000
O     4.671000000    -0.166000000    -2.018000000
H     4.242000000     0.674000000    -2.178000000
H     4.152000000    -0.572000000    -1.323000000
O     2.694000000    -2.743000000     6.689000000
H     3.572000000    -3.079000000     6.510000000
H     2.134000000    -3.183000000     6.049000000
O    -1.295000000     1.372000000    -5.634000000
H    -0.395000000     1.588000000    -5.390000000
H    -1.720000000     1.142000000    -4.808000000
O    -1.417000000    -4.949000000     1.396000000
H    -1.741000000    -4.257000000     0.819000000
H    -1.131000000    -4.489000000     2.185000000
O     2.335000000     1.218000000    -1.476000000
H     1.583000000     0.685000000    -1.218000000
H     2.707000000     1.523000000    -0.648000000
O    -1.046000000     4.885000000    -0.521000000
H    -1.516000000     4.659000000    -1.324000000
H    -0.397000000     5.532000000    -0.797000000
O     3.788000000    -0.869000000     1.810000000
H     3.390000000    -0.096000000     1.408000000
H     4.727000000    -0.762000000     1.657000000
O     0.731000000    -0.543000000     5.090000000
H     1.624000000    -0.652000000     4.763000000
H     0.239000000    -1.259000000     4.688000000
O     3.516000000    -4.273000000     1.622000000
H     3.811000000    -3.627000000     0.979000000
H     2.888000000    -4.815000000     1.145000000
O     2.636000000    -3.574000000    -2.358000000
H     3.382000000    -3.062000000    -2.045000000
H     2.946000000    -3.978000000    -3.169000000
O     1.080000000    -1.924000000    -4.273000000
H     0.196000000    -1.599000000    -4.100000000
H     1.187000000    -2.660000000    -3.670000000
O    -5.906000000     2.617000000     0.102000000
H    -6.503000000     2.079000000     0.622000000
H    -5.603000000     3.292000000     0.708000000
O     5.229000000    -3.196000000    -0.847000000
H     5.691000000    -3.021000000    -1.668000000
H     5.038000000    -4.134000000    -0.876000000
O     3.245000000    -1.371000000    -5.630000000
H     2.385000000    -1.436000000    -5.215000000
H     3.854000000    -1.714000000    -4.976000000
O    -4.052000000    -3.793000000    -7.264000000
H    -4.701000000    -3.220000000    -7.672000000
H    -3.888000000    -3.396000000    -6.408000000
O    -3.446000000     2.800000000    -2.428000000
H    -2.762000000     3.415000000    -2.692000000
H    -3.214000000     1.981000000    -2.866000000
O    -2.787000000    -3.396000000    -0.215000000
H    -3.111000000    -2.496000000    -0.196000000
H    -3.577000000    -3.936000000    -0.191000000
O    -0.097000000     4.624000000     4.746000000
H    -0.821000000     5.238000000     4.622000000
H    -0.137000000     4.050000000     3.981000000
O    -5.758000000     0.665000000    -2.151000000
H    -6.662000000     0.733000000    -2.459000000
H    -5.590000000     1.500000000    -1.714000000
O     0.922000000     2.771000000    -4.281000000
H     1.686000000     2.415000000    -3.827000000
H     1.262000000     3.067000000    -5.126000000
O    -5.187000000     2.797000000    -4.639000000
H    -6.015000000     3.250000000    -4.481000000
H    -4.822000000     2.654000000    -3.766000000
O     0.453000000     5.862000000     1.628000000
H    -0.448000000     5.547000000     1.556000000
H     0.463000000     6.376000000     2.435000000
O    -1.211000000     4.211000000    -3.263000000
H    -1.033000000     4.943000000    -3.853000000
H    -0.674000000     3.494000000    -3.602000000
O     3.466000000     1.657000000     0.903000000
H     2.871000000     2.385000000     1.077000000
H     4.280000000     1.901000000     1.345000000
O     0.232000000     1.079000000     7.236000000
H     0.297000000     0.434000000     6.532000000
H     0.882000000     1.745000000     7.012000000
O     2.001000000     3.674000000     1.538000000
H     1.391000000     4.393000000     1.701000000
H     1.848000000     3.061000000     2.257000000
O    -3.839000000     0.256000000     2.750000000
H    -4.206000000     1.058000000     2.378000000
H    -4.108000000     0.273000000     3.669000000
O     0.214000000    -5.830000000    -3.447000000
H    -0.473000000    -5.177000000    -3.582000000
H    -0.080000000    -6.334000000    -2.689000000
O    -5.244000000    -2.241000000    -2.468000000
H    -5.167000000    -1.790000000    -1.627000000
H    -5.554000000    -1.567000000    -3.073000000
O    -4.349000000     5.475000000    -1.296000000
H    -4.007000000     4.666000000    -1.677000000
H    -4.879000000     5.185000000    -0.554000000
O    -2.199000000     3.797000000     1.967000000
H    -3.146000000     3.919000000     1.904000000
H    -1.918000000     3.628000000     1.068000000
O    -3.722000000    -3.482000000    -4.647000000
H    -4.129000000    -3.098000000    -3.871000000
H    -2.850000000    -3.749000000    -4.354000000
O     1.893000000     2.079000000     3.663000000
H     1.686000000     1.211000000     4.007000000
H     2.304000000     2.536000000     4.397000000
O    -3.859000000    -0.925000000    -0.506000000
H    -3.521000000    -0.486000000    -1.287000000
H    -4.299000000    -0.232000000    -0.013000000
O     1.581000000    -4.009000000     4.313000000
H     1.475000000    -4.497000000     3.497000000
H     2.466000000    -3.647000000     4.262000000
O    -4.344000000    -0.211000000    -4.997000000
H    -4.615000000     0.700000000    -4.877000000
H    -3.467000000    -0.251000000    -4.615000000
O    -1.886000000     1.976000000    -8.373000000
H    -1.728000000     1.806000000    -7.444000000
H    -1.130000000     2.491000000    -8.654000000
