158
-3033.82031
C     0.261000000    -1.057000000    -0.981000000
H     0.618000000    -1.718000000    -1.767000000
C     0.998000000    -0.775000000     0.181000000
H     1.844000000    -1.434000000     0.360000000
C     0.561000000     0.087000000     1.113000000
H     1.121000000     0.287000000     1.988000000
C    -0.613000000     0.802000000     0.871000000
H    -0.827000000     1.593000000     1.586000000
C    -1.292000000     0.592000000    -0.350000000
H    -2.151000000     1.216000000    -0.582000000
C    -0.888000000    -0.320000000    -1.280000000
C    -1.582000000    -0.372000000    -2.581000000
O    -2.280000000     0.548000000    -3.025000000
O    -1.494000000    -1.419000000    -3.179000000
O     1.941000000    -0.943000000     6.139000000
H     2.540000000    -0.897000000     5.394000000
H     1.438000000    -1.744000000     5.992000000
O     2.493000000     4.653000000     1.350000000
H     2.272000000     4.039000000     0.650000000
H     1.650000000     4.888000000     1.737000000
O    -4.830000000    -4.603000000    -4.668000000
H    -4.346000000    -4.221000000    -5.400000000
H    -4.668000000    -4.007000000    -3.936000000
O    -0.663000000     0.261000000    -5.688000000
H    -0.726000000    -0.165000000    -4.833000000
H    -1.568000000     0.464000000    -5.922000000
O    -1.361000000    -3.819000000    -1.563000000
H    -1.205000000    -3.043000000    -2.101000000
H    -2.291000000    -3.773000000    -1.341000000
O     1.853000000    -0.257000000    -7.090000000
H     1.170000000    -0.036000000    -6.456000000
H     1.405000000    -0.252000000    -7.936000000
O    -2.165000000    -0.676000000     5.456000000
H    -1.638000000     0.093000000     5.237000000
H    -1.529000000    -1.386000000     5.539000000
O    -3.779000000     4.316000000     4.480000000
H    -2.898000000     4.078000000     4.190000000
H    -4.345000000     3.642000000     4.103000000
O     3.594000000     1.661000000     5.399000000
H     4.544000000     1.608000000     5.501000000
H     3.276000000     1.939000000     6.257000000
O     3.211000000    -3.780000000    -0.904000000
H     3.291000000    -4.732000000    -0.963000000
H     2.294000000    -3.631000000    -0.674000000
O     0.077000000    -3.572000000     2.408000000
H     0.949000000    -3.305000000     2.698000000
H    -0.478000000    -2.813000000     2.588000000
O    -0.920000000    -5.010000000    -6.645000000
H    -0.970000000    -4.571000000    -5.796000000
H    -0.334000000    -4.461000000    -7.165000000
O     3.595000000    -0.150000000    -2.940000000
H     3.202000000     0.682000000    -3.205000000
H     3.758000000    -0.050000000    -2.002000000
O     0.621000000    -3.054000000     5.140000000
H    -0.050000000    -3.689000000     5.388000000
H     1.422000000    -3.571000000     5.055000000
O    -2.235000000     2.600000000    -4.962000000
H    -1.733000000     3.408000000    -4.848000000
H    -2.010000000     2.070000000    -4.197000000
O    -3.522000000    -1.045000000    -6.994000000
H    -3.876000000    -0.765000000    -6.150000000
H    -4.036000000    -0.562000000    -7.642000000
O    -2.145000000    -1.566000000     1.797000000
H    -1.530000000    -0.833000000     1.811000000
H    -2.973000000    -1.191000000     2.098000000
O     4.091000000     0.736000000    -0.067000000
H     4.373000000    -0.175000000    -0.157000000
H     4.408000000     1.000000000     0.797000000
O     0.608000000     2.494000000    -6.466000000
H     0.116000000     1.679000000    -6.372000000
H     0.021000000     3.169000000    -6.124000000
O    -1.268000000     3.758000000     3.072000000
H    -0.734000000     4.541000000     3.207000000
H    -1.451000000     3.752000000     2.132000000
O     3.563000000    -0.417000000     3.641000000
H     4.027000000     0.151000000     3.025000000
H     3.510000000     0.097000000     4.447000000
O    -0.850000000     1.747000000     4.942000000
H    -0.583000000     2.481000000     5.496000000
H    -0.793000000     2.088000000     4.050000000
O    -0.678000000    -1.711000000    -8.067000000
H    -1.267000000    -1.720000000    -7.312000000
H    -0.630000000    -0.790000000    -8.322000000
O     4.768000000    -1.842000000     0.076000000
H     5.255000000    -2.087000000     0.862000000
H     4.037000000    -2.459000000     0.045000000
O     2.395000000    -2.479000000    -3.637000000
H     2.608000000    -1.566000000    -3.445000000
H     2.914000000    -2.983000000    -3.010000000
O    -0.227000000    -3.298000000    -4.738000000
H    -0.844000000    -2.733000000    -4.273000000
H     0.575000000    -3.257000000    -4.218000000
O     6.230000000    -2.482000000    -2.380000000
H     6.002000000    -1.645000000    -2.784000000
H     5.610000000    -2.577000000    -1.658000000
O     2.740000000    -2.846000000    -6.618000000
H     2.468000000    -1.993000000    -6.954000000
H     2.461000000    -2.843000000    -5.702000000
O    -2.783000000     3.282000000    -1.967000000
H    -2.039000000     3.440000000    -1.386000000
H    -2.690000000     2.367000000    -2.232000000
O    -3.914000000    -2.540000000    -0.484000000
H    -4.828000000    -2.301000000    -0.328000000
H    -3.444000000    -2.201000000     0.278000000
O    -6.751000000     0.392000000    -2.906000000
H    -6.427000000     1.292000000    -2.925000000
H    -7.491000000     0.391000000    -3.514000000
O     1.905000000     2.846000000    -0.424000000
H     2.200000000     1.967000000    -0.186000000
H     2.338000000     3.027000000    -1.258000000
O     2.573000000    -5.952000000    -3.060000000
H     2.097000000    -6.607000000    -3.570000000
H     1.931000000    -5.629000000    -2.428000000
O    -5.065000000     4.183000000    -3.914000000
H    -5.975000000     4.051000000    -3.649000000
H    -4.582000000     3.487000000    -3.467000000
O    -3.566000000     5.742000000    -1.212000000
H    -3.360000000     6.073000000    -2.086000000
H    -3.560000000     4.789000000    -1.309000000
O     0.886000000     5.747000000     3.528000000
H     1.573000000     5.242000000     3.963000000
H     1.195000000     6.653000000     3.564000000
O    -0.878000000     4.165000000     0.246000000
H    -0.561000000     5.031000000     0.502000000
H    -0.086000000     3.631000000     0.180000000
O     1.060000000     1.438000000     8.127000000
H     1.523000000     0.794000000     7.591000000
H     0.893000000     2.169000000     7.532000000
O     5.250000000     1.333000000     2.521000000
H     5.237000000     2.286000000     2.599000000
H     6.122000000     1.080000000     2.823000000
O    -4.377000000    -0.100000000     2.135000000
H    -4.806000000     0.469000000     1.496000000
H    -4.809000000     0.104000000     2.964000000
O     0.807000000    -5.369000000    -1.124000000
H     0.228000000    -4.632000000    -1.320000000
H     0.225000000    -6.045000000    -0.777000000
O    -5.084000000     1.733000000     0.024000000
H    -4.491000000     1.338000000    -0.616000000
H    -4.813000000     2.650000000     0.067000000
O    -3.929000000    -2.417000000    -3.195000000
H    -3.997000000    -2.469000000    -2.241000000
H    -3.021000000    -2.161000000    -3.357000000
O     3.011000000     4.022000000     4.131000000
H     2.847000000     3.610000000     3.283000000
H     3.304000000     3.305000000     4.694000000
O    -6.294000000    -1.367000000    -0.992000000
H    -6.979000000    -1.093000000    -0.383000000
H    -6.447000000    -0.840000000    -1.777000000
O     2.651000000    -2.861000000     2.572000000
H     2.965000000    -1.986000000     2.800000000
H     3.421000000    -3.423000000     2.660000000
O    -4.504000000     0.033000000    -4.666000000
H    -5.079000000    -0.451000000    -4.073000000
H    -3.743000000     0.258000000    -4.131000000
O    -5.205000000     3.109000000    -6.792000000
H    -4.842000000     2.766000000    -5.975000000
H    -6.143000000     3.191000000    -6.621000000
