158
-3035.25744
C     0.498000000     0.333000000    -1.355000000
H     0.875000000     0.659000000    -2.320000000
C     1.305000000     0.222000000    -0.228000000
H     2.348000000     0.520000000    -0.307000000
C     0.682000000    -0.104000000     0.994000000
H     1.183000000    -0.100000000     1.984000000
C    -0.678000000    -0.285000000     1.076000000
H    -1.103000000    -0.531000000     2.046000000
C    -1.434000000    -0.298000000    -0.072000000
H    -2.471000000    -0.615000000     0.014000000
C    -0.874000000     0.104000000    -1.277000000
C    -1.710000000     0.199000000    -2.517000000
O    -2.955000000     0.123000000    -2.432000000
O    -1.169000000     0.278000000    -3.626000000
O     1.827000000    -1.643000000     5.059000000
H     1.466000000    -2.529000000     5.078000000
H     1.063000000    -1.075000000     4.958000000
O     7.265000000     0.939000000    -1.869000000
H     7.335000000    -0.015000000    -1.905000000
H     6.749000000     1.112000000    -1.081000000
O     1.192000000     3.606000000    -1.031000000
H     1.692000000     3.082000000    -0.405000000
H     0.298000000     3.597000000    -0.689000000
O    -0.990000000    -2.256000000    -4.393000000
H    -1.133000000    -1.358000000    -4.096000000
H    -1.449000000    -2.308000000    -5.231000000
O    -2.087000000    -4.556000000    -3.105000000
H    -1.717000000    -3.704000000    -3.336000000
H    -1.326000000    -5.121000000    -2.975000000
O     2.151000000     2.297000000    -4.642000000
H     2.629000000     2.804000000    -5.298000000
H     1.574000000     2.934000000    -4.220000000
O    -0.315000000    -1.704000000     7.681000000
H     0.475000000    -2.243000000     7.732000000
H    -0.244000000    -1.254000000     6.839000000
O     2.438000000     1.019000000     5.785000000
H     3.366000000     1.200000000     5.636000000
H     2.308000000     0.134000000     5.445000000
O     0.802000000    -3.859000000    -1.916000000
H     0.657000000    -4.803000000    -1.976000000
H     0.598000000    -3.642000000    -1.007000000
O     0.788000000     4.142000000     5.145000000
H     0.974000000     4.787000000     4.463000000
H     1.125000000     3.318000000     4.794000000
O     0.280000000    -3.484000000     0.634000000
H     0.925000000    -3.759000000     1.285000000
H    -0.227000000    -2.800000000     1.072000000
O     4.569000000     0.892000000    -4.790000000
H     3.778000000     1.429000000    -4.735000000
H     4.472000000     0.249000000    -4.087000000
O    -1.335000000    -2.801000000     3.055000000
H    -2.113000000    -3.181000000     2.648000000
H    -1.002000000    -3.492000000     3.628000000
O    -3.348000000    -0.144000000    -5.294000000
H    -2.546000000     0.095000000    -4.831000000
H    -3.661000000    -0.928000000    -4.843000000
O    -4.248000000    -3.782000000     2.034000000
H    -4.975000000    -3.177000000     2.177000000
H    -4.066000000    -3.720000000     1.096000000
O     4.208000000    -1.149000000    -2.470000000
H     4.258000000    -0.264000000    -2.109000000
H     3.736000000    -1.652000000    -1.806000000
O    -1.987000000     3.104000000     2.348000000
H    -2.117000000     2.673000000     1.503000000
H    -1.130000000     3.524000000     2.273000000
O     4.459000000    -1.315000000     4.454000000
H     4.806000000    -0.440000000     4.626000000
H     3.629000000    -1.342000000     4.929000000
O    -2.409000000     1.295000000     4.617000000
H    -3.152000000     1.582000000     5.147000000
H    -2.368000000     1.928000000     3.900000000
O     5.056000000    -3.985000000     5.398000000
H     4.732000000    -3.215000000     4.930000000
H     5.059000000    -4.681000000     4.741000000
O    -2.438000000    -2.562000000    -6.640000000
H    -3.330000000    -2.788000000    -6.905000000
H    -2.226000000    -1.783000000    -7.154000000
O     1.920000000     5.106000000    -3.380000000
H     2.876000000     5.050000000    -3.383000000
H     1.655000000     4.629000000    -2.594000000
O     3.081000000    -2.216000000     0.082000000
H     2.163000000    -2.102000000     0.330000000
H     3.233000000    -3.159000000     0.153000000
O     1.540000000    -3.288000000    -4.563000000
H     0.691000000    -2.877000000    -4.723000000
H     1.701000000    -3.150000000    -3.629000000
O    -7.811000000     0.864000000    -2.573000000
H    -7.488000000     0.316000000    -1.858000000
H    -7.859000000     1.744000000    -2.198000000
O     2.752000000    -1.647000000    -6.496000000
H     2.361000000    -2.278000000    -5.892000000
H     2.675000000    -0.805000000    -6.046000000
O     4.414000000     1.750000000    -1.769000000
H     4.394000000     2.398000000    -2.473000000
H     4.331000000     2.265000000    -0.967000000
O    -4.286000000     2.264000000    -3.679000000
H    -4.191000000     3.081000000    -3.190000000
H    -3.677000000     1.659000000    -3.255000000
O    -3.992000000    -4.118000000    -0.880000000
H    -3.801000000    -3.192000000    -0.734000000
H    -3.488000000    -4.347000000    -1.661000000
O     0.219000000     0.788000000    -5.917000000
H    -0.343000000     0.676000000    -5.150000000
H     0.937000000     1.341000000    -5.609000000
O    -1.534000000     3.157000000    -0.436000000
H    -2.031000000     3.939000000    -0.678000000
H    -1.506000000     2.634000000    -1.237000000
O     4.169000000    -0.302000000     1.868000000
H     4.050000000    -0.591000000     2.772000000
H     4.125000000    -1.107000000     1.351000000
O    -1.607000000     3.038000000    -3.160000000
H    -1.294000000     3.632000000    -3.841000000
H    -1.096000000     2.238000000    -3.286000000
O     0.668000000    -4.536000000     5.049000000
H    -0.097000000    -4.298000000     5.572000000
H     1.185000000    -5.102000000     5.624000000
O     6.497000000     0.813000000     0.984000000
H     5.653000000     0.369000000     1.073000000
H     6.315000000     1.722000000     1.225000000
O    -0.761000000    -0.831000000     5.130000000
H    -1.283000000    -0.030000000     5.081000000
H    -1.048000000    -1.351000000     4.380000000
O     3.396000000     2.977000000     1.103000000
H     4.187000000     3.454000000     1.353000000
H     3.518000000     2.101000000     1.469000000
O    -5.532000000    -0.759000000     2.022000000
H    -5.139000000    -0.907000000     1.161000000
H    -5.690000000     0.184000000     2.054000000
O     5.064000000     1.236000000     4.941000000
H     4.992000000     1.927000000     4.283000000
H     6.002000000     1.172000000     5.120000000
O    -2.965000000     3.613000000    -6.354000000
H    -3.306000000     4.479000000    -6.130000000
H    -3.495000000     3.006000000    -5.837000000
O    -6.157000000     1.919000000     0.065000000
H    -5.485000000     1.662000000    -0.566000000
H    -6.755000000     2.474000000    -0.435000000
O    -4.678000000    -4.646000000    -4.184000000
H    -4.583000000    -3.694000000    -4.214000000
H    -3.902000000    -4.949000000    -3.713000000
O     0.897000000     4.237000000     2.216000000
H     0.837000000     5.151000000     1.938000000
H     1.668000000     3.898000000     1.762000000
O    -4.643000000    -1.456000000    -0.599000000
H    -4.192000000    -0.880000000    -1.216000000
H    -5.567000000    -1.390000000    -0.842000000
O     2.101000000    -4.138000000     2.572000000
H     1.370000000    -3.955000000     3.163000000
H     2.865000000    -4.190000000     3.146000000
O    -4.876000000    -2.027000000    -3.863000000
H    -5.794000000    -1.826000000    -3.682000000
H    -4.397000000    -1.259000000    -3.553000000
O    -1.740000000     1.617000000    -8.280000000
H    -1.011000000     1.136000000    -7.887000000
H    -2.272000000     1.896000000    -7.535000000
O    -4.969000000     1.066000000    -6.923000000
H    -4.208000000     0.761000000    -6.429000000
H    -5.692000000     0.526000000    -6.606000000
