158
-3079.13390
C    -0.281000000     0.622000000    -1.340000000
H    -0.364000000     1.015000000    -2.350000000
C     0.976000000     0.597000000    -0.710000000
H     1.902000000     1.004000000    -1.109000000
C     1.095000000    -0.011000000     0.561000000
H     2.052000000     0.046000000     1.073000000
C     0.024000000    -0.706000000     1.112000000
H     0.124000000    -1.180000000     2.086000000
C    -1.197000000    -0.476000000     0.493000000
H    -2.072000000    -0.886000000     0.990000000
C    -1.417000000     0.111000000    -0.697000000
C    -2.790000000     0.206000000    -1.308000000
O    -3.813000000    -0.044000000    -0.613000000
O    -2.942000000     0.537000000    -2.480000000
O     2.102000000    -4.230000000     4.365000000
H     2.520000000    -4.209000000     5.226000000
H     1.272000000    -4.683000000     4.513000000
O     1.459000000     1.028000000     5.845000000
H     1.468000000     1.271000000     4.920000000
H     0.543000000     1.116000000     6.108000000
O     7.995000000    -0.416000000     1.850000000
H     8.723000000    -0.955000000     1.540000000
H     7.270000000    -1.033000000     1.956000000
O    -3.730000000    -2.730000000    -3.674000000
H    -2.927000000    -2.235000000    -3.838000000
H    -4.343000000    -2.419000000    -4.340000000
O     2.427000000    -5.483000000     1.977000000
H     2.673000000    -5.117000000     2.827000000
H     1.569000000    -5.100000000     1.792000000
O     3.781000000     3.958000000    -0.915000000
H     3.039000000     4.527000000    -1.121000000
H     3.716000000     3.812000000     0.028000000
O    -1.712000000    -0.818000000    -4.358000000
H    -2.150000000    -0.230000000    -3.742000000
H    -1.437000000    -0.250000000    -5.077000000
O    -2.039000000    -3.542000000    -1.383000000
H    -2.545000000    -3.130000000    -2.084000000
H    -1.176000000    -3.133000000    -1.439000000
O    -0.093000000     2.277000000    -4.785000000
H    -0.103000000     1.470000000    -5.299000000
H     0.818000000     2.568000000    -4.815000000
O    -4.230000000     1.129000000     3.122000000
H    -4.305000000     1.416000000     2.212000000
H    -4.926000000     1.600000000     3.580000000
O     3.747000000    -0.566000000     5.381000000
H     3.517000000    -0.993000000     4.555000000
H     2.922000000    -0.197000000     5.697000000
O     0.566000000    -2.918000000    -1.632000000
H     0.507000000    -3.544000000    -2.354000000
H     1.354000000    -3.177000000    -1.154000000
O     1.012000000     2.000000000     3.371000000
H     1.109000000     1.700000000     2.467000000
H     0.075000000     2.171000000     3.468000000
O     5.923000000    -3.803000000    -0.186000000
H     5.620000000    -2.917000000    -0.386000000
H     6.352000000    -3.723000000     0.666000000
O     0.143000000    -3.643000000     1.832000000
H    -0.638000000    -3.208000000     2.173000000
H     0.576000000    -2.976000000     1.299000000
O     6.177000000     0.897000000    -2.781000000
H     6.332000000     0.929000000    -1.837000000
H     5.318000000     1.302000000    -2.897000000
O    -2.141000000    -2.992000000     3.219000000
H    -2.829000000    -2.952000000     2.554000000
H    -2.369000000    -2.299000000     3.839000000
O    -5.545000000     0.077000000    -3.674000000
H    -4.852000000     0.625000000    -3.306000000
H    -6.042000000    -0.224000000    -2.913000000
O     4.748000000    -1.537000000    -0.640000000
H     5.062000000    -0.678000000    -0.355000000
H     4.383000000    -1.382000000    -1.511000000
O    -0.666000000     2.658000000     1.100000000
H    -1.374000000     3.118000000     0.649000000
H    -0.600000000     1.818000000     0.647000000
O    -1.714000000     2.245000000     3.863000000
H    -2.346000000     1.526000000     3.857000000
H    -1.697000000     2.556000000     2.958000000
O     3.092000000    -2.093000000     3.049000000
H     2.821000000    -2.126000000     2.132000000
H     2.899000000    -2.967000000     3.388000000
O     1.141000000    -1.298000000    -3.646000000
H     0.927000000    -1.569000000    -2.753000000
H     0.311000000    -1.358000000    -4.119000000
O     2.809000000    -3.206000000     0.350000000
H     3.409000000    -2.620000000    -0.111000000
H     3.157000000    -4.082000000     0.185000000
O     3.536000000    -0.802000000    -2.951000000
H     2.728000000    -0.707000000    -3.455000000
H     3.898000000     0.084000000    -2.910000000
O     3.944000000     2.317000000    -3.055000000
H     4.091000000     2.958000000    -2.358000000
H     3.118000000     2.586000000    -3.457000000
O    -4.434000000     2.069000000     0.681000000
H    -4.170000000     2.783000000     0.100000000
H    -4.249000000     1.273000000     0.183000000
O    -2.074000000    -4.744000000     1.052000000
H    -1.180000000    -4.415000000     1.149000000
H    -2.449000000    -4.214000000     0.348000000
O    -1.165000000     4.025000000    -3.014000000
H    -0.704000000     3.231000000    -3.284000000
H    -0.470000000     4.663000000    -2.855000000
O    -8.098000000    -2.247000000    -1.584000000
H    -7.752000000    -1.405000000    -1.288000000
H    -7.321000000    -2.755000000    -1.819000000
O    -3.022000000     2.230000000    -4.477000000
H    -2.976000000     1.843000000    -3.602000000
H    -2.192000000     2.696000000    -4.577000000
O    -2.586000000     3.758000000    -0.640000000
H    -2.707000000     4.677000000    -0.405000000
H    -2.288000000     3.780000000    -1.549000000
O     3.308000000     3.795000000     3.519000000
H     2.409000000     3.474000000     3.453000000
H     3.799000000     3.059000000     3.883000000
O    -4.743000000     4.837000000    -4.102000000
H    -4.133000000     4.387000000    -3.518000000
H    -4.554000000     4.477000000    -4.969000000
O    -0.601000000    -4.932000000     4.359000000
H    -0.914000000    -4.184000000     3.851000000
H    -1.237000000    -5.625000000     4.180000000
O     3.967000000    -5.458000000    -0.923000000
H     4.624000000    -4.948000000    -0.450000000
H     4.043000000    -6.341000000    -0.563000000
O     5.930000000    -2.042000000     2.336000000
H     6.227000000    -2.916000000     2.589000000
H     4.990000000    -2.048000000     2.513000000
O    -3.264000000    -1.259000000     4.998000000
H    -3.341000000    -0.308000000     4.921000000
H    -2.930000000    -1.400000000     5.884000000
O    -5.481000000    -1.434000000    -5.854000000
H    -5.452000000    -0.880000000    -5.074000000
H    -6.195000000    -1.073000000    -6.379000000
O     5.609000000     1.668000000     4.669000000
H     6.533000000     1.446000000     4.559000000
H     5.178000000     0.829000000     4.830000000
O    -0.103000000     0.347000000    -6.654000000
H     0.501000000    -0.396000000    -6.679000000
H    -0.741000000     0.159000000    -7.342000000
O    -7.236000000     0.687000000     1.671000000
H    -6.539000000     0.214000000     2.124000000
H    -7.948000000     0.734000000     2.310000000
O    -5.823000000    -3.691000000    -2.123000000
H    -5.578000000    -4.600000000    -1.953000000
H    -4.993000000    -3.246000000    -2.292000000
O     6.342000000     0.800000000     0.036000000
H     6.389000000     1.737000000     0.224000000
H     6.864000000     0.391000000     0.726000000
O    -4.100000000    -2.407000000     1.236000000
H    -4.098000000    -1.566000000     0.778000000
H    -5.022000000    -2.568000000     1.437000000
O    -6.664000000    -0.089000000    -0.876000000
H    -6.895000000     0.086000000     0.036000000
H    -5.707000000    -0.095000000    -0.884000000
O    -4.180000000     2.609000000    -7.277000000
H    -3.916000000     2.573000000    -6.358000000
H    -4.534000000     3.491000000    -7.390000000
O    -7.431000000     2.110000000    -4.467000000
H    -7.008000000     1.278000000    -4.256000000
H    -8.134000000     2.192000000    -3.823000000
