158
-3034.32077
C     0.235000000     0.238000000    -1.474000000
H     0.542000000     0.364000000    -2.509000000
C     1.234000000    -0.183000000    -0.526000000
H     2.274000000    -0.260000000    -0.831000000
C     0.859000000    -0.381000000     0.768000000
H     1.533000000    -0.706000000     1.496000000
C    -0.454000000    -0.219000000     1.167000000
H    -0.663000000    -0.364000000     2.224000000
C    -1.440000000     0.252000000     0.288000000
H    -2.446000000     0.357000000     0.685000000
C    -1.107000000     0.448000000    -1.067000000
C    -2.137000000     0.882000000    -2.035000000
O    -3.024000000     1.560000000    -1.593000000
O    -1.966000000     0.607000000    -3.202000000
O     1.345000000    -3.334000000     1.817000000
H     1.701000000    -4.214000000     1.939000000
H     0.813000000    -3.181000000     2.598000000
O     1.553000000    -1.120000000     4.481000000
H     1.028000000    -0.393000000     4.147000000
H     0.935000000    -1.847000000     4.556000000
O     7.304000000    -2.182000000    -0.512000000
H     8.224000000    -2.436000000    -0.434000000
H     7.024000000    -2.016000000     0.388000000
O     3.921000000    -6.155000000    -0.520000000
H     3.314000000    -5.418000000    -0.588000000
H     4.788000000    -5.759000000    -0.604000000
O     2.970000000     3.800000000    -1.539000000
H     2.876000000     4.752000000    -1.560000000
H     2.339000000     3.511000000    -0.879000000
O    -1.432000000    -1.755000000    -4.374000000
H    -1.637000000    -0.941000000    -3.914000000
H    -2.022000000    -2.403000000    -3.988000000
O     4.077000000     3.486000000     3.894000000
H     4.624000000     4.128000000     3.440000000
H     4.695000000     2.966000000     4.408000000
O    -2.224000000    -3.870000000     3.718000000
H    -2.675000000    -3.041000000     3.879000000
H    -2.836000000    -4.375000000     3.181000000
O     0.826000000     2.350000000    -6.023000000
H     0.106000000     2.716000000    -6.536000000
H     1.174000000     1.644000000    -6.568000000
O    -3.954000000     1.443000000     3.125000000
H    -4.232000000     2.175000000     2.575000000
H    -4.763000000     1.122000000     3.524000000
O     4.302000000    -0.636000000     6.160000000
H     4.685000000    -0.885000000     5.319000000
H     3.542000000    -1.211000000     6.257000000
O     1.794000000     1.496000000     3.151000000
H     1.599000000     1.611000000     2.221000000
H     2.474000000     2.144000000     3.336000000
O    -0.956000000    -4.685000000    -0.102000000
H    -1.761000000    -4.168000000    -0.070000000
H    -0.265000000    -4.066000000     0.134000000
O     5.943000000     1.595000000    -4.430000000
H     5.106000000     1.868000000    -4.054000000
H     5.893000000     0.640000000    -4.457000000
O    -3.441000000    -3.279000000     0.642000000
H    -4.323000000    -3.058000000     0.345000000
H    -3.438000000    -3.056000000     1.573000000
O    -4.705000000     0.594000000    -4.125000000
H    -3.750000000     0.664000000    -4.109000000
H    -4.966000000     0.665000000    -3.207000000
O     5.204000000    -3.014000000    -2.347000000
H     5.823000000    -3.021000000    -1.616000000
H     4.953000000    -2.095000000    -2.438000000
O     0.919000000     2.834000000     0.253000000
H     0.232000000     3.062000000    -0.373000000
H     0.898000000     1.878000000     0.295000000
O    -1.416000000     2.864000000     3.366000000
H    -2.138000000     2.264000000     3.180000000
H    -0.709000000     2.299000000     3.677000000
O     3.607000000    -2.022000000     2.963000000
H     3.210000000    -2.691000000     2.405000000
H     2.935000000    -1.824000000     3.615000000
O     1.548000000    -1.859000000    -3.787000000
H     1.487000000    -2.485000000    -3.065000000
H     0.699000000    -1.916000000    -4.226000000
O     2.179000000    -2.703000000     7.220000000
H     2.166000000    -3.023000000     6.318000000
H     1.491000000    -3.201000000     7.662000000
O     2.552000000    -3.596000000    -0.937000000
H     2.290000000    -2.918000000    -0.314000000
H     3.287000000    -3.210000000    -1.415000000
O     3.672000000    -0.784000000    -2.910000000
H     2.870000000    -1.231000000    -3.181000000
H     3.440000000     0.145000000    -2.908000000
O     2.592000000     1.880000000    -3.611000000
H     2.613000000     2.605000000    -2.987000000
H     1.743000000     1.962000000    -4.046000000
O    -3.922000000     3.432000000     0.276000000
H    -3.519000000     2.821000000    -0.341000000
H    -4.733000000     3.001000000     0.545000000
O    -4.123000000     4.926000000     2.706000000
H    -3.346000000     5.481000000     2.775000000
H    -3.987000000     4.422000000     1.904000000
O    -6.998000000    -1.336000000    -2.453000000
H    -6.387000000    -0.752000000    -2.003000000
H    -6.516000000    -2.157000000    -2.551000000
O    -1.862000000     2.596000000    -4.677000000
H    -1.707000000     1.777000000    -4.206000000
H    -1.063000000     3.105000000    -4.543000000
O     2.894000000    -5.675000000     2.545000000
H     2.494000000    -6.508000000     2.793000000
H     3.219000000    -5.820000000     1.656000000
O    -6.464000000     4.593000000    -3.549000000
H    -5.606000000     4.243000000    -3.309000000
H    -7.085000000     3.927000000    -3.254000000
O    -1.104000000     3.956000000    -1.529000000
H    -1.298000000     4.833000000    -1.860000000
H    -1.656000000     3.375000000    -2.052000000
O     5.348000000     1.811000000     5.565000000
H     4.972000000     1.037000000     5.985000000
H     6.071000000     1.470000000     5.039000000
O    -4.312000000     3.377000000    -2.887000000
H    -4.352000000     2.828000000    -2.105000000
H    -3.719000000     2.911000000    -3.477000000
O     0.305000000    -3.606000000     4.495000000
H    -0.631000000    -3.758000000     4.367000000
H     0.686000000    -4.482000000     4.548000000
O     6.380000000    -2.249000000     2.090000000
H     6.906000000    -2.206000000     2.888000000
H     5.499000000    -2.003000000     2.370000000
O    -3.328000000    -1.192000000     3.633000000
H    -3.744000000    -0.900000000     4.444000000
H    -3.414000000    -0.447000000     3.038000000
O    -3.580000000    -0.429000000    -6.518000000
H    -4.170000000    -0.195000000    -5.802000000
H    -3.210000000     0.406000000    -6.806000000
O    -1.429000000     1.392000000     6.523000000
H    -2.015000000     2.094000000     6.238000000
H    -1.997000000     0.626000000     6.607000000
O    -0.362000000    -1.902000000    -6.831000000
H    -0.742000000    -1.734000000    -5.969000000
H    -1.116000000    -2.068000000    -7.397000000
O    -6.370000000     1.800000000     0.964000000
H    -7.212000000     2.131000000     0.651000000
H    -6.587000000     1.304000000     1.753000000
O    -0.118000000     4.821000000     1.984000000
H    -0.306000000     3.926000000     2.267000000
H    -0.023000000     4.756000000     1.033000000
O     5.261000000     2.150000000    -1.014000000
H     4.890000000     1.733000000    -0.236000000
H     4.535000000     2.650000000    -1.387000000
O     4.004000000     1.292000000     1.226000000
H     3.599000000     0.500000000     1.578000000
H     4.606000000     1.580000000     1.914000000
O     3.242000000    -0.214000000    -6.027000000
H     2.656000000    -0.007000000    -5.299000000
H     4.085000000    -0.394000000    -5.611000000
O     3.169000000    -4.437000000     5.058000000
H     3.149000000    -4.758000000     4.156000000
H     4.029000000    -4.698000000     5.386000000
O    -5.267000000     0.441000000    -1.224000000
H    -5.808000000     0.967000000    -0.636000000
H    -4.393000000     0.825000000    -1.154000000
O    -3.654000000     2.460000000    -6.900000000
H    -3.162000000     2.630000000    -6.097000000
H    -4.438000000     3.002000000    -6.821000000
