158
-3023.49713
C    -0.743000000     0.812000000     0.959000000
H    -1.074000000     1.401000000     1.811000000
C     0.123000000    -0.260000000     1.211000000
H     0.456000000    -0.471000000     2.224000000
C     0.773000000    -0.990000000     0.224000000
H     1.424000000    -1.814000000     0.508000000
C     0.527000000    -0.625000000    -1.067000000
H     0.921000000    -1.291000000    -1.831000000
C    -0.347000000     0.401000000    -1.389000000
H    -0.533000000     0.680000000    -2.423000000
C    -1.041000000     1.142000000    -0.365000000
C    -1.991000000     2.321000000    -0.640000000
O    -2.111000000     2.758000000    -1.737000000
O    -2.476000000     2.973000000     0.225000000
O     0.540000000    -6.219000000    -2.096000000
H     1.423000000    -6.587000000    -2.101000000
H     0.325000000    -6.123000000    -1.168000000
O     3.648000000    -3.248000000    -3.217000000
H     3.392000000    -4.161000000    -3.349000000
H     3.533000000    -3.100000000    -2.278000000
O    -6.197000000     0.994000000     1.153000000
H    -5.725000000     0.241000000     0.798000000
H    -5.512000000     1.625000000     1.375000000
O    -3.503000000     1.003000000    -3.375000000
H    -3.052000000     1.544000000    -2.726000000
H    -2.800000000     0.549000000    -3.839000000
O     3.220000000    -0.686000000     5.577000000
H     3.444000000    -1.219000000     4.814000000
H     2.264000000    -0.643000000     5.566000000
O     2.013000000     2.808000000     4.577000000
H     2.612000000     2.516000000     5.265000000
H     1.471000000     3.474000000     4.999000000
O     1.141000000     5.682000000    -0.751000000
H     1.494000000     4.931000000    -1.227000000
H     0.579000000     5.296000000    -0.078000000
O     1.894000000     3.389000000    -2.538000000
H     1.861000000     2.937000000    -1.695000000
H     2.541000000     2.900000000    -3.047000000
O     7.139000000    -0.410000000    -0.064000000
H     6.262000000    -0.138000000     0.208000000
H     7.470000000     0.326000000    -0.578000000
O     5.911000000    -2.742000000     4.050000000
H     6.493000000    -2.693000000     3.292000000
H     5.093000000    -3.097000000     3.703000000
O    -4.667000000     4.132000000    -1.721000000
H    -5.071000000     3.720000000    -0.957000000
H    -3.792000000     3.747000000    -1.766000000
O     1.989000000     2.241000000    -0.103000000
H     1.518000000     1.408000000    -0.114000000
H     1.598000000     2.728000000     0.623000000
O    -4.956000000     5.335000000    -4.127000000
H    -4.905000000     4.947000000    -3.254000000
H    -4.317000000     6.048000000    -4.110000000
O     2.582000000     1.393000000    -5.099000000
H     1.639000000     1.520000000    -5.197000000
H     2.676000000     0.471000000    -4.860000000
O    -7.153000000     3.023000000    -2.361000000
H    -6.373000000     3.490000000    -2.662000000
H    -6.912000000     2.098000000    -2.414000000
O    -0.667000000     3.666000000    -3.982000000
H     0.279000000     3.735000000    -3.854000000
H    -1.011000000     3.449000000    -3.116000000
O     3.036000000    -1.438000000    -5.002000000
H     2.233000000    -1.893000000    -5.259000000
H     3.460000000    -2.032000000    -4.382000000
O    -0.253000000     1.616000000    -5.753000000
H    -0.471000000     2.430000000    -5.300000000
H    -0.177000000     1.867000000    -6.674000000
O    -4.714000000    -1.025000000    -0.323000000
H    -3.824000000    -1.137000000    -0.656000000
H    -4.726000000    -1.515000000     0.499000000
O     6.820000000    -2.881000000    -1.219000000
H     6.643000000    -2.090000000    -0.711000000
H     6.244000000    -2.810000000    -1.981000000
O     0.585000000    -2.841000000     4.510000000
H     0.629000000    -1.916000000     4.755000000
H    -0.351000000    -3.038000000     4.482000000
O     0.620000000    -0.059000000     5.095000000
H     0.915000000     0.500000000     4.376000000
H     0.499000000     0.541000000     5.831000000
O    -3.933000000     0.386000000     3.831000000
H    -3.698000000     0.948000000     3.093000000
H    -4.876000000     0.509000000     3.936000000
O     3.226000000    -3.039000000     3.397000000
H     2.390000000    -3.116000000     3.856000000
H     3.187000000    -3.710000000     2.714000000
O    -1.007000000     4.907000000     1.739000000
H    -1.256000000     4.754000000     2.650000000
H    -1.535000000     4.285000000     1.238000000
O     3.624000000    -4.777000000     1.398000000
H     3.119000000    -5.508000000     1.754000000
H     4.517000000    -5.114000000     1.329000000
O     4.331000000    -1.036000000     1.758000000
H     3.566000000    -0.478000000     1.899000000
H     4.183000000    -1.794000000     2.323000000
O    -1.777000000    -1.624000000     5.000000000
H    -1.332000000    -0.825000000     4.719000000
H    -2.506000000    -1.316000000     5.538000000
O     6.246000000    -5.028000000     1.392000000
H     7.022000000    -5.526000000     1.652000000
H     6.512000000    -4.112000000     1.471000000
O     2.168000000    -6.797000000     2.872000000
H     1.619000000    -7.073000000     3.606000000
H     1.590000000    -6.837000000     2.111000000
O    -1.879000000    -0.501000000    -4.891000000
H    -1.279000000     0.075000000    -5.365000000
H    -1.996000000    -1.253000000    -5.470000000
O    -4.177000000     3.341000000    -5.711000000
H    -4.452000000     4.125000000    -5.235000000
H    -4.076000000     2.672000000    -5.033000000
O     4.506000000    -0.703000000    -2.284000000
H     4.326000000    -1.566000000    -1.910000000
H     3.828000000    -0.585000000    -2.950000000
O    -2.529000000     6.970000000    -4.704000000
H    -2.102000000     6.216000000    -4.298000000
H    -2.395000000     6.843000000    -5.643000000
O    -4.983000000    -1.065000000    -5.263000000
H    -5.214000000    -1.850000000    -4.766000000
H    -4.248000000    -0.685000000    -4.783000000
O     1.764000000     4.042000000     2.174000000
H     1.832000000     3.869000000     3.113000000
H     0.917000000     4.475000000     2.070000000
O     3.661000000    -2.831000000    -0.634000000
H     3.581000000    -3.704000000    -0.250000000
H     3.661000000    -2.238000000     0.117000000
O    -1.409000000     7.380000000    -0.174000000
H    -2.300000000     7.256000000    -0.501000000
H    -1.105000000     6.496000000     0.032000000
O    -4.017000000     6.885000000    -1.154000000
H    -4.396000000     7.334000000    -1.910000000
H    -4.404000000     6.009000000    -1.178000000
O    -4.750000000     7.532000000     1.433000000
H    -4.534000000     6.903000000     2.121000000
H    -4.480000000     7.102000000     0.621000000
O     0.051000000    -6.446000000     0.805000000
H    -0.390000000    -7.275000000     0.617000000
H    -0.661000000    -5.818000000     0.927000000
O    -3.044000000    -3.323000000     3.001000000
H    -3.910000000    -2.953000000     2.832000000
H    -2.538000000    -2.594000000     3.359000000
O     2.638000000     0.817000000     2.719000000
H     2.745000000     1.224000000     1.860000000
H     2.716000000     1.543000000     3.339000000
O     6.164000000     1.266000000     3.536000000
H     6.011000000     0.653000000     2.817000000
H     7.067000000     1.561000000     3.411000000
O    -6.082000000     0.466000000    -2.307000000
H    -5.415000000     0.555000000    -2.987000000
H    -5.646000000    -0.019000000    -1.606000000
O    -2.231000000    -2.065000000    -0.427000000
H    -1.826000000    -2.648000000    -1.069000000
H    -1.496000000    -1.712000000     0.073000000
O    -2.473000000     4.498000000     3.953000000
H    -3.377000000     4.649000000     4.228000000
H    -1.977000000     4.459000000     4.771000000
O    -4.160000000     2.661000000     2.084000000
H    -3.626000000     2.750000000     1.295000000
H    -3.963000000     3.445000000     2.596000000
