158
-3047.36326
C     1.250000000     0.635000000    -0.571000000
H     2.183000000     0.958000000    -1.025000000
C     1.269000000    -0.153000000     0.635000000
H     2.211000000    -0.491000000     1.061000000
C     0.011000000    -0.544000000     1.136000000
H     0.041000000    -1.215000000     1.944000000
C    -1.166000000    -0.280000000     0.393000000
H    -2.157000000    -0.612000000     0.692000000
C    -1.153000000     0.465000000    -0.799000000
H    -2.053000000     0.670000000    -1.373000000
C     0.100000000     0.921000000    -1.229000000
C     0.118000000     1.600000000    -2.620000000
O    -0.934000000     1.904000000    -3.114000000
O     1.163000000     1.904000000    -3.198000000
O     1.160000000    -3.407000000    -0.028000000
H     0.944000000    -2.505000000    -0.263000000
H     1.624000000    -3.333000000     0.806000000
O     3.227000000     1.756000000     2.421000000
H     3.600000000     2.487000000     2.913000000
H     3.702000000     1.759000000     1.590000000
O    -1.816000000    -0.093000000    -4.861000000
H    -2.288000000    -0.881000000    -4.592000000
H    -1.645000000     0.374000000    -4.044000000
O    -1.632000000     0.937000000     6.773000000
H    -2.471000000     0.696000000     6.378000000
H    -1.870000000     1.402000000     7.575000000
O     4.949000000     1.570000000     0.451000000
H     5.814000000     1.876000000     0.177000000
H     4.702000000     0.925000000    -0.211000000
O    -0.015000000    -6.117000000     5.668000000
H    -0.555000000    -6.549000000     5.006000000
H     0.435000000    -5.419000000     5.192000000
O     2.991000000     3.846000000    -3.134000000
H     2.355000000     3.138000000    -3.234000000
H     3.039000000     3.993000000    -2.189000000
O     5.517000000     1.087000000    -5.882000000
H     4.799000000     0.637000000    -5.437000000
H     5.737000000     0.517000000    -6.619000000
O     1.376000000    -2.824000000     4.569000000
H     1.527000000    -2.820000000     5.514000000
H     1.790000000    -2.019000000     4.256000000
O     1.689000000     4.144000000     3.646000000
H     1.185000000     3.556000000     3.083000000
H     1.469000000     3.870000000     4.537000000
O    -1.233000000    -2.990000000     4.118000000
H    -0.369000000    -3.321000000     4.362000000
H    -1.140000000    -2.038000000     4.136000000
O    -3.113000000     5.720000000    -3.319000000
H    -3.373000000     4.971000000    -2.782000000
H    -2.206000000     5.537000000    -3.563000000
O     6.567000000    -1.997000000     0.047000000
H     6.209000000    -2.206000000     0.909000000
H     5.944000000    -1.374000000    -0.327000000
O    -2.669000000     3.310000000     4.523000000
H    -2.643000000     2.570000000     3.917000000
H    -3.129000000     2.974000000     5.292000000
O     3.372000000     0.477000000    -4.227000000
H     2.688000000     1.096000000    -3.970000000
H     3.222000000    -0.289000000    -3.672000000
O     2.786000000    -1.819000000    -2.477000000
H     3.077000000    -2.662000000    -2.825000000
H     1.832000000    -1.892000000    -2.438000000
O    -0.684000000     3.855000000    -8.042000000
H    -0.712000000     3.081000000    -7.479000000
H     0.247000000     4.060000000    -8.120000000
O    -1.473000000    -3.374000000    -0.729000000
H    -1.810000000    -3.220000000     0.153000000
H    -0.527000000    -3.463000000    -0.612000000
O    -4.736000000     3.408000000    -4.129000000
H    -5.189000000     3.939000000    -3.474000000
H    -5.117000000     2.535000000    -4.034000000
O     1.929000000     0.352000000     4.119000000
H     2.627000000     0.272000000     4.769000000
H     2.311000000     0.886000000     3.422000000
O     3.570000000     4.486000000    -0.339000000
H     3.729000000     3.769000000     0.275000000
H     3.099000000     5.142000000     0.175000000
O    -1.725000000    -6.497000000     0.267000000
H    -2.137000000    -7.303000000    -0.044000000
H    -0.847000000    -6.513000000    -0.113000000
O     4.682000000    -0.990000000     1.966000000
H     5.465000000    -0.446000000     2.055000000
H     4.025000000    -0.404000000     1.590000000
O    -2.609000000    -2.877000000     1.706000000
H    -3.215000000    -3.617000000     1.727000000
H    -2.116000000    -2.947000000     2.523000000
O     4.389000000     3.728000000    -5.317000000
H     3.817000000     3.798000000    -4.552000000
H     4.724000000     2.832000000    -5.285000000
O     0.919000000    -6.107000000    -0.924000000
H     1.088000000    -5.165000000    -0.946000000
H     1.033000000    -6.391000000    -1.831000000
O    -6.113000000     2.299000000    -0.606000000
H    -6.437000000     2.972000000    -1.204000000
H    -5.324000000     2.680000000    -0.221000000
O     4.758000000    -0.487000000    -1.220000000
H     5.347000000    -0.225000000    -1.927000000
H     4.001000000    -0.867000000    -1.667000000
O    -0.421000000     4.833000000     0.533000000
H    -0.013000000     4.053000000     0.909000000
H    -1.074000000     5.098000000     1.180000000
O    -4.386000000    -1.513000000    -0.940000000
H    -3.554000000    -1.629000000    -0.481000000
H    -5.001000000    -2.072000000    -0.465000000
O    -3.158000000    -3.465000000     6.295000000
H    -2.419000000    -3.446000000     5.686000000
H    -3.920000000    -3.263000000     5.752000000
O     4.669000000    -1.375000000     5.113000000
H     5.168000000    -2.142000000     5.394000000
H     5.132000000    -1.059000000     4.337000000
O     2.938000000    -1.592000000    -6.143000000
H     2.943000000    -1.220000000    -5.261000000
H     2.011000000    -1.640000000    -6.377000000
O    -3.029000000    -2.004000000    -3.416000000
H    -3.514000000    -2.035000000    -2.591000000
H    -2.998000000    -2.914000000    -3.710000000
O    -2.308000000     2.735000000    -5.319000000
H    -3.127000000     3.057000000    -4.942000000
H    -1.883000000     2.265000000    -4.601000000
O     2.376000000     3.222000000    -7.452000000
H     1.818000000     2.650000000    -6.926000000
H     3.247000000     3.130000000    -7.064000000
O    -0.750000000    -0.397000000     4.446000000
H     0.192000000    -0.271000000     4.332000000
H    -0.935000000    -0.044000000     5.317000000
O    -0.152000000     4.946000000    -3.579000000
H    -0.344000000     4.125000000    -4.033000000
H     0.802000000     4.959000000    -3.499000000
O    -5.213000000     0.505000000    -2.481000000
H    -4.877000000    -0.195000000    -1.921000000
H    -5.662000000     1.099000000    -1.879000000
O    -1.467000000    -6.548000000     3.308000000
H    -2.316000000    -6.117000000     3.413000000
H    -1.530000000    -6.998000000     2.466000000
O    -2.307000000     1.512000000    -8.131000000
H    -2.788000000     1.986000000    -8.809000000
H    -2.416000000     2.046000000    -7.343000000
O    -3.780000000     3.314000000     0.637000000
H    -3.345000000     3.691000000    -0.127000000
H    -3.066000000     2.963000000     1.170000000
O    -0.024000000     2.397000000     2.078000000
H     0.570000000     1.653000000     2.178000000
H    -0.767000000     2.187000000     2.643000000
O     0.248000000    -2.640000000    -2.933000000
H    -0.019000000    -3.382000000    -3.476000000
H    -0.575000000    -2.265000000    -2.619000000
O     2.822000000    -3.335000000     2.191000000
H     3.620000000    -2.814000000     2.280000000
H     2.405000000    -3.282000000     3.050000000
O    -2.561000000     3.567000000    -1.661000000
H    -1.766000000     4.005000000    -1.357000000
H    -2.244000000     2.848000000    -2.208000000
O     0.634000000     1.912000000    -5.953000000
H     0.809000000     1.966000000    -5.014000000
H    -0.032000000     1.229000000    -6.034000000
O    -2.436000000     0.877000000     2.905000000
H    -1.761000000     0.285000000     3.238000000
H    -3.155000000     0.300000000     2.648000000
