158
-3013.73573
C     1.446000000     0.269000000    -0.194000000
H     2.491000000     0.545000000    -0.072000000
C     0.860000000    -0.764000000     0.637000000
H     1.498000000    -1.457000000     1.179000000
C    -0.539000000    -0.861000000     0.719000000
H    -1.067000000    -1.598000000     1.411000000
C    -1.358000000    -0.020000000    -0.037000000
H    -2.435000000    -0.164000000    -0.019000000
C    -0.751000000     0.999000000    -0.746000000
H    -1.443000000     1.641000000    -1.286000000
C     0.636000000     1.185000000    -0.880000000
C     1.310000000     2.280000000    -1.637000000
O     0.573000000     3.124000000    -2.193000000
O     2.512000000     2.224000000    -1.866000000
O     1.276000000    -3.968000000    -0.329000000
H     1.319000000    -4.517000000    -1.111000000
H     0.639000000    -3.287000000    -0.548000000
O    -1.883000000    -1.187000000    -5.076000000
H    -2.037000000    -0.365000000    -4.611000000
H    -2.496000000    -1.806000000    -4.680000000
O     7.202000000     1.419000000     1.291000000
H     8.067000000     1.024000000     1.399000000
H     6.911000000     1.126000000     0.428000000
O    -4.252000000    -1.580000000     6.999000000
H    -4.656000000    -2.436000000     7.142000000
H    -3.339000000    -1.779000000     6.792000000
O    -3.709000000    -5.982000000    -1.837000000
H    -3.253000000    -5.423000000    -2.466000000
H    -3.094000000    -6.075000000    -1.109000000
O     5.103000000     3.196000000    -2.025000000
H     4.209000000     2.855000000    -2.012000000
H     5.323000000     3.327000000    -1.102000000
O     5.527000000     1.389000000    -4.506000000
H     5.209000000     1.796000000    -3.700000000
H     4.747000000     1.000000000    -4.902000000
O    -1.477000000    -4.737000000     4.388000000
H    -1.588000000    -5.645000000     4.107000000
H    -0.756000000    -4.406000000     3.852000000
O     4.755000000    -3.422000000    -0.009000000
H     4.070000000    -3.423000000    -0.677000000
H     5.521000000    -3.788000000    -0.451000000
O     4.375000000     0.200000000    -1.928000000
H     3.635000000     0.804000000    -1.853000000
H     3.972000000    -0.654000000    -2.084000000
O     2.891000000    -1.866000000    -2.821000000
H     2.072000000    -1.723000000    -3.297000000
H     3.226000000    -2.694000000    -3.164000000
O     3.334000000    -4.029000000     3.209000000
H     3.733000000    -3.576000000     2.466000000
H     3.558000000    -3.488000000     3.966000000
O     0.081000000     4.498000000    -6.098000000
H     0.843000000     4.894000000    -5.675000000
H    -0.453000000     4.172000000    -5.374000000
O     0.590000000    -3.937000000     2.519000000
H     1.367000000    -4.011000000     3.074000000
H     0.938000000    -3.844000000     1.632000000
O    -4.267000000     2.739000000    -3.696000000
H    -4.756000000     2.272000000    -4.373000000
H    -4.861000000     2.762000000    -2.945000000
O     3.346000000     0.847000000     4.593000000
H     3.228000000     1.549000000     5.234000000
H     4.111000000     1.114000000     4.084000000
O     5.875000000     3.956000000     0.541000000
H     6.308000000     3.353000000     1.145000000
H     5.413000000     4.573000000     1.109000000
O     1.515000000    -6.524000000     0.997000000
H     1.429000000    -5.653000000     0.608000000
H     1.455000000    -7.125000000     0.254000000
O     3.912000000     6.962000000    -1.832000000
H     3.165000000     6.363000000    -1.853000000
H     4.664000000     6.399000000    -1.650000000
O     4.316000000    -1.841000000     1.927000000
H     4.233000000    -2.256000000     1.068000000
H     4.386000000    -0.906000000     1.735000000
O    -4.717000000    -4.746000000     3.296000000
H    -4.408000000    -5.217000000     2.522000000
H    -3.934000000    -4.629000000     3.834000000
O     2.157000000     5.970000000    -4.776000000
H     2.260000000     6.829000000    -5.187000000
H     2.033000000     6.163000000    -3.847000000
O    -4.275000000    -6.332000000     1.268000000
H    -4.063000000    -7.111000000     1.782000000
H    -5.110000000    -6.541000000     0.850000000
O    -5.326000000     1.958000000     0.967000000
H    -5.490000000     2.426000000     0.148000000
H    -4.538000000     2.369000000     1.323000000
O     6.822000000     0.839000000    -1.203000000
H     7.239000000     0.126000000    -1.689000000
H     5.927000000     0.868000000    -1.541000000
O     1.522000000     6.462000000     0.456000000
H     1.595000000     7.403000000     0.616000000
H     0.980000000     6.138000000     1.175000000
O    -4.297000000    -2.056000000    -0.618000000
H    -3.857000000    -2.896000000    -0.489000000
H    -4.833000000    -1.943000000     0.166000000
O     2.579000000     0.555000000    -5.994000000
H     2.268000000     0.713000000    -5.103000000
H     1.789000000     0.590000000    -6.533000000
O    -3.252000000    -0.241000000    -2.969000000
H    -3.457000000     0.424000000    -2.312000000
H    -3.410000000    -1.074000000    -2.525000000
O    -3.145000000     2.213000000    -6.280000000
H    -3.081000000     2.937000000    -6.903000000
H    -2.599000000     2.483000000    -5.542000000
O     3.600000000     2.825000000    -6.961000000
H     3.397000000     1.928000000    -6.698000000
H     3.067000000     3.371000000    -6.383000000
O     0.688000000     1.432000000     4.522000000
H     1.504000000     0.981000000     4.304000000
H     0.209000000     0.808000000     5.069000000
O    -1.900000000    -3.983000000     1.213000000
H    -2.217000000    -4.734000000     1.715000000
H    -1.083000000    -3.734000000     1.644000000
O     1.735000000     5.491000000    -2.116000000
H     1.336000000     4.640000000    -2.298000000
H     1.656000000     5.595000000    -1.168000000
O    -1.252000000     2.997000000    -4.052000000
H    -0.500000000     2.895000000    -3.468000000
H    -2.002000000     3.075000000    -3.463000000
O    -6.519000000    -2.123000000    -2.522000000
H    -5.895000000    -2.516000000    -1.911000000
H    -6.797000000    -1.314000000    -2.093000000
O    -5.884000000    -1.934000000     2.020000000
H    -5.672000000    -1.742000000     2.933000000
H    -6.100000000    -2.867000000     2.016000000
O    -0.869000000    -6.927000000     2.769000000
H    -1.317000000    -7.320000000     2.020000000
H    -0.012000000    -6.670000000     2.428000000
O    -1.907000000     7.178000000     0.207000000
H    -2.695000000     6.902000000     0.675000000
H    -1.529000000     6.364000000    -0.127000000
O     0.372000000     1.724000000    -7.567000000
H    -0.282000000     1.984000000    -8.216000000
H     0.043000000     2.077000000    -6.741000000
O     6.422000000     5.923000000    -1.491000000
H     6.961000000     5.540000000    -0.799000000
H     5.949000000     5.180000000    -1.865000000
O    -3.073000000     3.457000000     1.532000000
H    -2.340000000     3.787000000     1.013000000
H    -2.666000000     2.891000000     2.189000000
O     0.861000000     3.353000000     1.374000000
H     0.618000000     2.543000000     1.823000000
H     1.056000000     3.969000000     2.079000000
O    -1.720000000    -1.742000000     6.148000000
H    -1.096000000    -2.160000000     5.555000000
H    -1.345000000    -0.878000000     6.322000000
O     3.084000000    -1.964000000     5.270000000
H     3.921000000    -2.076000000     5.720000000
H     3.111000000    -1.068000000     4.934000000
O    -1.064000000     4.365000000    -0.435000000
H    -0.325000000     4.235000000     0.159000000
H    -0.828000000     3.873000000    -1.222000000
O     2.410000000     3.139000000    -4.323000000
H     2.604000000     2.816000000    -3.443000000
H     2.325000000     4.087000000    -4.216000000
O    -1.339000000     1.386000000     2.532000000
H    -0.614000000     1.362000000     3.156000000
H    -0.986000000     0.980000000     1.740000000
