158
-3017.33786
C    -0.034000000     1.052000000     1.021000000
H    -0.103000000     1.725000000     1.871000000
C     0.267000000    -0.302000000     1.261000000
H     0.583000000    -0.652000000     2.241000000
C     0.277000000    -1.160000000     0.205000000
H     0.532000000    -2.247000000     0.375000000
C     0.050000000    -0.702000000    -1.054000000
H     0.070000000    -1.375000000    -1.907000000
C    -0.331000000     0.635000000    -1.332000000
H    -0.556000000     1.067000000    -2.304000000
C    -0.394000000     1.518000000    -0.289000000
C    -0.815000000     2.922000000    -0.474000000
O    -0.977000000     3.338000000    -1.578000000
O    -0.887000000     3.695000000     0.416000000
O     3.409000000    -5.499000000    -1.058000000
H     3.933000000    -5.434000000    -0.260000000
H     2.823000000    -4.742000000    -1.022000000
O     5.225000000    -2.720000000    -2.056000000
H     4.820000000    -2.668000000    -1.190000000
H     6.095000000    -3.083000000    -1.893000000
O     0.155000000    -7.068000000    -0.125000000
H    -0.067000000    -7.941000000    -0.448000000
H     1.072000000    -7.138000000     0.141000000
O    -5.533000000     2.821000000     1.779000000
H    -5.611000000     2.017000000     1.266000000
H    -4.593000000     2.995000000     1.811000000
O    -1.856000000     2.774000000    -4.293000000
H    -1.744000000     3.178000000    -3.433000000
H    -0.985000000     2.808000000    -4.689000000
O     3.223000000    -0.462000000     4.962000000
H     3.398000000     0.464000000     4.795000000
H     2.292000000    -0.494000000     5.182000000
O     0.699000000     6.140000000    -1.226000000
H     0.708000000     5.367000000    -0.660000000
H     0.485000000     5.798000000    -2.094000000
O    -2.297000000     3.136000000     5.647000000
H    -3.051000000     3.719000000     5.738000000
H    -1.789000000     3.274000000     6.446000000
O     2.246000000     3.395000000    -1.933000000
H     2.682000000     3.097000000    -2.731000000
H     1.338000000     3.543000000    -2.197000000
O    -2.783000000    -1.823000000    -2.815000000
H    -2.506000000    -1.685000000    -1.909000000
H    -2.374000000    -1.107000000    -3.302000000
O    -3.642000000     3.582000000    -1.289000000
H    -3.601000000     4.473000000    -0.942000000
H    -2.728000000     3.345000000    -1.450000000
O     3.545000000    -6.537000000    -3.498000000
H     3.853000000    -5.926000000    -4.167000000
H     3.515000000    -6.016000000    -2.695000000
O     2.279000000     3.704000000     4.510000000
H     1.454000000     4.146000000     4.308000000
H     2.319000000     3.698000000     5.466000000
O    -1.457000000     0.000000000    -4.658000000
H    -1.434000000     0.957000000    -4.666000000
H    -1.853000000    -0.237000000    -5.497000000
O    -3.793000000    -4.857000000     1.559000000
H    -3.642000000    -5.455000000     2.291000000
H    -4.301000000    -5.371000000     0.931000000
O    -5.389000000     4.207000000    -3.540000000
H    -5.085000000     3.694000000    -2.791000000
H    -4.915000000     5.036000000    -3.471000000
O    -1.216000000    -4.061000000    -1.906000000
H    -1.820000000    -3.320000000    -1.950000000
H    -1.455000000    -4.518000000    -1.099000000
O     0.259000000     4.897000000    -3.412000000
H     0.005000000     4.753000000    -4.324000000
H    -0.410000000     4.441000000    -2.902000000
O    -1.923000000     8.420000000     2.335000000
H    -1.758000000     7.516000000     2.069000000
H    -2.468000000     8.780000000     1.635000000
O     2.858000000     1.513000000    -4.108000000
H     3.507000000     1.224000000    -3.465000000
H     3.270000000     1.344000000    -4.955000000
O     2.258000000    -6.553000000     2.598000000
H     2.050000000    -5.632000000     2.443000000
H     1.539000000    -6.872000000     3.144000000
O     1.054000000    -2.431000000     5.252000000
H     0.577000000    -1.602000000     5.293000000
H     0.987000000    -2.790000000     6.137000000
O     0.382000000     0.138000000     5.634000000
H     0.350000000     0.638000000     6.450000000
H    -0.358000000     0.465000000     5.123000000
O    -2.048000000     0.723000000     4.592000000
H    -2.501000000     0.435000000     3.800000000
H    -2.292000000     1.644000000     4.685000000
O     3.520000000    -2.872000000     3.494000000
H     2.633000000    -3.100000000     3.216000000
H     3.397000000    -2.367000000     4.298000000
O    -1.103000000    -4.695000000     0.974000000
H    -0.736000000    -5.573000000     1.073000000
H    -2.038000000    -4.805000000     1.146000000
O     1.001000000     5.132000000     1.621000000
H     0.730000000     5.157000000     2.539000000
H     0.310000000     4.637000000     1.181000000
O     4.747000000    -4.989000000     4.950000000
H     4.092000000    -4.573000000     4.391000000
H     5.579000000    -4.604000000     4.674000000
O     4.893000000    -0.384000000     2.262000000
H     4.968000000     0.365000000     2.852000000
H     4.430000000    -1.047000000     2.774000000
O     0.515000000     2.492000000    -5.272000000
H     1.276000000     2.143000000    -4.808000000
H     0.575000000     2.114000000    -6.149000000
O     3.525000000     6.206000000    -1.773000000
H     2.664000000     6.100000000    -1.369000000
H     3.546000000     5.548000000    -2.468000000
O     2.033000000    -2.808000000    -6.202000000
H     1.269000000    -2.708000000    -5.633000000
H     2.627000000    -3.373000000    -5.708000000
O    -4.881000000     1.334000000    -4.012000000
H    -5.120000000     1.559000000    -3.113000000
H    -3.960000000     1.584000000    -4.085000000
O     1.527000000     7.709000000     1.467000000
H     2.233000000     7.525000000     0.847000000
H     1.101000000     6.863000000     1.604000000
O     3.629000000     2.988000000     0.463000000
H     3.332000000     3.117000000    -0.438000000
H     2.838000000     2.745000000     0.944000000
O     3.418000000    -3.160000000     0.329000000
H     2.812000000    -2.419000000     0.349000000
H     3.277000000    -3.607000000     1.163000000
O     1.315000000    -3.725000000     2.465000000
H     0.680000000    -3.677000000     1.750000000
H     0.787000000    -3.655000000     3.260000000
O    -0.283000000    -2.854000000    -4.579000000
H    -0.455000000    -3.240000000    -3.720000000
H    -0.480000000    -1.924000000    -4.466000000
O    -2.215000000     6.491000000    -0.434000000
H    -1.550000000     6.591000000    -1.115000000
H    -1.914000000     5.747000000     0.087000000
O    -4.427000000     5.803000000     2.159000000
H    -5.197000000     5.673000000     2.712000000
H    -4.750000000     6.312000000     1.415000000
O    -2.701000000    -2.194000000    -0.035000000
H    -3.452000000    -2.710000000     0.258000000
H    -1.940000000    -2.665000000     0.305000000
O     4.385000000     1.833000000     4.114000000
H     3.708000000     2.487000000     4.287000000
H     5.207000000     2.278000000     4.322000000
O    -5.899000000     1.736000000    -1.247000000
H    -5.067000000     2.156000000    -1.029000000
H    -5.835000000     0.863000000    -0.857000000
O    -3.042000000     0.111000000     1.597000000
H    -2.974000000    -0.538000000     0.897000000
H    -2.315000000     0.713000000     1.437000000
O    -0.049000000     5.012000000     4.365000000
H    -0.923000000     4.737000000     4.643000000
H    -0.057000000     5.965000000     4.454000000
O     6.349000000    -2.929000000     1.310000000
H     6.925000000    -2.726000000     0.573000000
H     5.900000000    -2.105000000     1.498000000
O    -2.802000000     3.374000000     2.230000000
H    -2.022000000     3.378000000     1.676000000
H    -3.172000000     4.251000000     2.129000000
O    -1.355000000    -6.384000000    -3.481000000
H    -0.552000000    -6.900000000    -3.546000000
H    -1.112000000    -5.626000000    -2.950000000
