158
-3047.57788
C     1.207000000     0.771000000     0.367000000
H     2.011000000     1.361000000     0.798000000
C     0.520000000    -0.141000000     1.213000000
H     0.814000000    -0.259000000     2.253000000
C    -0.581000000    -0.840000000     0.731000000
H    -1.027000000    -1.648000000     1.364000000
C    -0.936000000    -0.660000000    -0.587000000
H    -1.819000000    -1.123000000    -1.021000000
C    -0.261000000     0.240000000    -1.441000000
H    -0.445000000     0.184000000    -2.511000000
C     0.803000000     0.988000000    -0.929000000
C     1.440000000     2.072000000    -1.704000000
O     1.136000000     2.208000000    -2.872000000
O     2.199000000     2.871000000    -1.139000000
O    -2.161000000     0.195000000     7.089000000
H    -2.252000000     0.364000000     8.027000000
H    -3.024000000    -0.115000000     6.816000000
O    -4.336000000    -4.650000000    -4.165000000
H    -3.918000000    -4.831000000    -5.007000000
H    -3.630000000    -4.311000000    -3.615000000
O     3.446000000     0.390000000     2.743000000
H     2.590000000     0.395000000     3.170000000
H     3.751000000     1.295000000     2.808000000
O    -4.602000000     2.278000000    -1.021000000
H    -5.112000000     1.839000000    -1.702000000
H    -3.830000000     2.613000000    -1.477000000
O    -1.087000000     3.494000000    -3.563000000
H    -0.295000000     3.040000000    -3.276000000
H    -1.372000000     3.011000000    -4.339000000
O     3.854000000     3.171000000     2.097000000
H     3.289000000     3.373000000     1.351000000
H     3.591000000     3.796000000     2.773000000
O     3.692000000     4.927000000    -0.698000000
H     3.199000000     5.432000000    -0.051000000
H     3.037000000     4.370000000    -1.118000000
O    -6.199000000    -1.283000000     0.065000000
H    -5.649000000    -1.981000000     0.420000000
H    -6.046000000    -0.539000000     0.648000000
O     1.654000000     0.710000000     5.154000000
H     0.901000000     1.156000000     5.543000000
H     2.211000000     0.487000000     5.900000000
O     1.586000000     1.117000000    -5.158000000
H     2.362000000     0.562000000    -5.083000000
H     1.373000000     1.355000000    -4.255000000
O    -2.197000000     3.539000000    -1.054000000
H    -1.406000000     3.302000000    -0.570000000
H    -1.903000000     3.637000000    -1.960000000
O     0.974000000    -2.747000000    -1.754000000
H     0.814000000    -3.665000000    -1.538000000
H     0.546000000    -2.257000000    -1.051000000
O     6.501000000     2.414000000     1.729000000
H     5.652000000     2.841000000     1.842000000
H     6.736000000     2.112000000     2.607000000
O     6.001000000     6.410000000    -1.384000000
H     6.653000000     5.758000000    -1.640000000
H     5.220000000     5.898000000    -1.173000000
O     0.491000000    -1.497000000     6.921000000
H     0.542000000    -1.281000000     5.990000000
H    -0.242000000    -0.975000000     7.248000000
O     6.055000000     0.806000000    -0.237000000
H     6.138000000     1.495000000     0.422000000
H     6.001000000     1.275000000    -1.069000000
O     5.283000000    -1.040000000     4.318000000
H     5.521000000    -1.746000000     3.717000000
H     4.597000000    -0.555000000     3.858000000
O    -0.972000000     5.955000000    -4.539000000
H    -1.845000000     6.326000000    -4.412000000
H    -0.983000000     5.138000000    -4.041000000
O     0.955000000     3.747000000    -6.113000000
H     1.731000000     3.915000000    -6.648000000
H     1.130000000     2.903000000    -5.697000000
O    -1.527000000    -3.902000000     2.426000000
H    -0.659000000    -3.720000000     2.787000000
H    -2.135000000    -3.590000000     3.096000000
O     4.638000000     1.845000000    -2.620000000
H     3.933000000     2.441000000    -2.370000000
H     4.200000000     1.008000000    -2.776000000
O     2.847000000    -3.318000000     1.070000000
H     3.344000000    -2.625000000     0.635000000
H     2.796000000    -4.020000000     0.421000000
O     7.174000000     2.171000000    -3.481000000
H     6.321000000     2.209000000    -3.049000000
H     7.014000000     1.678000000    -4.286000000
O     0.231000000    -6.236000000     3.250000000
H     0.354000000    -5.665000000     4.008000000
H     0.435000000    -5.681000000     2.497000000
O    -2.100000000    -1.712000000     4.361000000
H    -2.665000000    -2.461000000     4.549000000
H    -2.287000000    -1.088000000     5.063000000
O     1.767000000     5.123000000    -3.613000000
H     1.714000000     4.305000000    -3.119000000
H     1.315000000     4.935000000    -4.436000000
O    -1.555000000     3.238000000    -7.252000000
H    -0.920000000     3.570000000    -6.618000000
H    -2.391000000     3.610000000    -6.971000000
O     1.384000000     7.434000000    -2.029000000
H     1.522000000     6.644000000    -2.551000000
H     0.496000000     7.716000000    -2.250000000
O    -3.749000000    -4.102000000     4.441000000
H    -4.012000000    -4.540000000     3.631000000
H    -3.454000000    -4.811000000     5.012000000
O    -4.540000000    -0.696000000     6.107000000
H    -4.870000000    -1.505000000     6.498000000
H    -5.037000000    -0.602000000     5.295000000
O     2.954000000    -1.024000000    -2.864000000
H     3.490000000    -1.634000000    -2.359000000
H     2.052000000    -1.255000000    -2.640000000
O     2.029000000     6.181000000     1.330000000
H     1.561000000     6.158000000     2.165000000
H     2.398000000     7.063000000     1.287000000
O     1.398000000     3.832000000     4.896000000
H     0.660000000     3.341000000     5.259000000
H     0.994000000     4.486000000     4.326000000
O    -4.353000000    -5.464000000     1.989000000
H    -4.044000000    -5.211000000     1.119000000
H    -3.992000000    -6.340000000     2.125000000
O    -4.900000000    -4.036000000    -1.248000000
H    -4.457000000    -3.535000000    -0.563000000
H    -4.424000000    -3.819000000    -2.049000000
O    -4.718000000     1.254000000     1.764000000
H    -4.953000000     1.860000000     1.061000000
H    -3.760000000     1.247000000     1.763000000
O    -3.448000000    -2.650000000     0.853000000
H    -2.857000000    -3.190000000     1.378000000
H    -3.198000000    -1.750000000     1.061000000
O    -3.706000000    -0.128000000    -4.877000000
H    -4.453000000    -0.631000000    -4.553000000
H    -2.950000000    -0.505000000    -4.428000000
O    -0.988000000    -1.968000000    -4.903000000
H    -1.531000000    -2.542000000    -5.443000000
H    -0.112000000    -2.041000000    -5.280000000
O     0.182000000     4.419000000     0.207000000
H     0.473000000     5.196000000     0.683000000
H     0.981000000     4.065000000    -0.185000000
O    -2.406000000    -3.425000000    -2.550000000
H    -1.815000000    -3.461000000    -1.799000000
H    -1.829000000    -3.300000000    -3.304000000
O     0.854000000    -3.263000000     3.342000000
H     1.508000000    -3.370000000     4.033000000
H     1.359000000    -3.006000000     2.571000000
O    -0.018000000    -4.723000000     5.882000000
H    -0.306000000    -5.520000000     6.327000000
H    -0.298000000    -4.013000000     6.458000000
O    -2.708000000    -6.433000000    -0.778000000
H    -3.475000000    -7.003000000    -0.732000000
H    -2.486000000    -6.405000000    -1.709000000
O    -1.996000000     1.776000000     2.056000000
H    -1.712000000     2.135000000     1.215000000
H    -1.214000000     1.356000000     2.413000000
O     4.245000000    -0.985000000     0.765000000
H     3.852000000    -0.392000000     1.406000000
H     4.808000000    -0.423000000     0.233000000
O    -1.068000000    -4.138000000    -0.295000000
H    -1.694000000    -4.842000000    -0.464000000
H    -1.030000000    -4.076000000     0.660000000
O    -5.958000000    -0.457000000     3.766000000
H    -6.862000000    -0.348000000     3.473000000
H    -5.456000000     0.154000000     3.227000000
