158
-3050.50067
C     1.170000000     0.893000000    -0.086000000
H     2.089000000     1.473000000    -0.086000000
C     0.850000000     0.096000000     0.985000000
H     1.522000000     0.086000000     1.839000000
C    -0.229000000    -0.786000000     0.917000000
H    -0.365000000    -1.436000000     1.828000000
C    -1.189000000    -0.682000000    -0.099000000
H    -2.096000000    -1.270000000    -0.210000000
C    -0.944000000     0.192000000    -1.145000000
H    -1.707000000     0.298000000    -1.912000000
C     0.259000000     0.983000000    -1.189000000
C     0.620000000     1.830000000    -2.382000000
O    -0.120000000     1.821000000    -3.329000000
O     1.635000000     2.534000000    -2.346000000
O    -3.578000000    -1.476000000     3.260000000
H    -3.856000000    -1.740000000     4.137000000
H    -4.396000000    -1.316000000     2.788000000
O    -3.163000000    -5.467000000     1.185000000
H    -3.416000000    -6.344000000     0.897000000
H    -2.747000000    -5.074000000     0.418000000
O    -1.799000000     3.690000000    -4.288000000
H    -1.449000000     4.330000000    -4.907000000
H    -1.053000000     3.128000000    -4.076000000
O     0.479000000     2.188000000    -8.456000000
H     0.485000000     2.234000000    -7.500000000
H     0.032000000     2.989000000    -8.731000000
O     3.113000000     2.666000000     2.386000000
H     2.381000000     2.627000000     3.001000000
H     3.254000000     3.602000000     2.241000000
O    -5.239000000     2.734000000    -1.914000000
H    -4.682000000     3.510000000    -1.979000000
H    -5.373000000     2.459000000    -2.821000000
O    -1.014000000     4.967000000    -1.951000000
H    -1.521000000     4.571000000    -2.660000000
H    -0.102000000     4.797000000    -2.185000000
O     4.680000000    -4.070000000     3.902000000
H     3.847000000    -4.306000000     4.310000000
H     5.230000000    -3.782000000     4.630000000
O     3.417000000     5.485000000     2.384000000
H     2.959000000     5.508000000     1.544000000
H     2.978000000     6.149000000     2.915000000
O     2.260000000     5.446000000    -0.203000000
H     1.595000000     6.084000000     0.057000000
H     1.970000000     5.134000000    -1.060000000
O    -5.873000000    -1.877000000    -0.982000000
H    -6.196000000    -2.276000000    -0.174000000
H    -5.761000000    -0.952000000    -0.764000000
O     0.473000000     2.478000000     3.540000000
H    -0.047000000     3.265000000     3.698000000
H    -0.118000000     1.891000000     3.068000000
O    -3.973000000    -2.289000000    -2.935000000
H    -4.706000000    -2.378000000    -2.325000000
H    -3.295000000    -2.865000000    -2.580000000
O     1.702000000    -1.626000000    -4.117000000
H     1.416000000    -1.758000000    -3.213000000
H     2.533000000    -1.158000000    -4.039000000
O     0.633000000     2.372000000    -5.774000000
H     1.267000000     3.088000000    -5.777000000
H     0.634000000     2.054000000    -4.871000000
O     1.722000000    -1.940000000    -1.120000000
H     1.392000000    -2.783000000    -0.811000000
H     1.277000000    -1.293000000    -0.573000000
O     6.132000000     1.708000000     2.117000000
H     5.258000000     1.894000000     2.460000000
H     6.515000000     1.104000000     2.753000000
O     0.625000000    -0.152000000     5.178000000
H     0.680000000     0.731000000     4.810000000
H     1.248000000    -0.665000000     4.663000000
O     7.055000000     0.120000000    -1.092000000
H     6.258000000     0.606000000    -0.879000000
H     6.752000000    -0.771000000    -1.264000000
O    -4.325000000     2.803000000    -4.683000000
H    -3.440000000     3.136000000    -4.540000000
H    -4.209000000     1.861000000    -4.808000000
O     2.242000000     4.974000000    -6.155000000
H     2.395000000     5.433000000    -6.981000000
H     2.963000000     4.347000000    -6.092000000
O     0.847000000    -3.506000000     2.484000000
H     1.488000000    -3.012000000     2.996000000
H     0.182000000    -3.768000000     3.121000000
O     3.408000000     2.642000000    -4.547000000
H     2.865000000     2.583000000    -3.761000000
H     3.566000000     1.732000000    -4.799000000
O     2.554000000    -6.997000000     1.848000000
H     2.360000000    -6.195000000     2.334000000
H     2.954000000    -7.578000000     2.494000000
O     4.165000000    -2.219000000    -0.165000000
H     3.536000000    -2.476000000    -0.838000000
H     4.054000000    -2.870000000     0.528000000
O     5.930000000     3.760000000    -3.654000000
H     4.992000000     3.629000000    -3.792000000
H     6.317000000     2.897000000    -3.799000000
O    -0.314000000    -6.329000000     3.865000000
H    -0.570000000    -5.497000000     4.263000000
H    -1.063000000    -6.576000000     3.323000000
O    -1.114000000    -3.772000000     4.403000000
H    -1.960000000    -3.390000000     4.169000000
H    -0.855000000    -3.309000000     5.200000000
O     1.470000000     4.896000000    -3.323000000
H     1.575000000     3.968000000    -3.115000000
H     1.785000000     4.977000000    -4.224000000
O    -0.840000000     5.147000000    -6.296000000
H     0.079000000     5.414000000    -6.318000000
H    -1.305000000     5.847000000    -6.754000000
O     0.960000000     7.819000000    -3.276000000
H     0.849000000     6.925000000    -2.952000000
H     0.158000000     7.996000000    -3.767000000
O    -4.163000000    -5.304000000     3.945000000
H    -3.924000000    -5.529000000     3.046000000
H    -3.822000000    -6.026000000     4.472000000
O     4.276000000    -0.362000000    -2.704000000
H     3.922000000     0.486000000    -2.435000000
H     4.298000000    -0.879000000    -1.899000000
O     2.044000000    -4.034000000     5.875000000
H     2.747000000    -4.317000000     6.460000000
H     1.296000000    -4.579000000     6.119000000
O    -6.115000000     0.872000000    -0.281000000
H    -6.185000000     1.088000000     0.649000000
H    -5.623000000     1.601000000    -0.659000000
O    -5.865000000    -3.455000000     1.604000000
H    -5.066000000    -3.980000000     1.636000000
H    -6.575000000    -4.097000000     1.636000000
O    -1.310000000    -0.272000000    -4.868000000
H    -0.787000000    -0.305000000    -5.669000000
H    -0.815000000     0.298000000    -4.281000000
O    -0.329000000    -3.529000000    -3.784000000
H    -0.773000000    -2.789000000    -4.197000000
H     0.585000000    -3.441000000    -4.054000000
O    -6.465000000     0.582000000    -3.961000000
H    -5.578000000     0.255000000    -4.115000000
H    -6.771000000     0.094000000    -3.197000000
O    -1.876000000    -3.512000000    -1.514000000
H    -1.313000000    -3.266000000    -0.780000000
H    -1.274000000    -3.625000000    -2.250000000
O     2.532000000    -1.937000000     4.022000000
H     2.432000000    -2.441000000     4.829000000
H     3.382000000    -2.208000000     3.675000000
O    -3.974000000    -0.098000000    -4.370000000
H    -3.097000000     0.021000000    -4.735000000
H    -3.875000000    -0.809000000    -3.737000000
O    -3.580000000     2.999000000     3.267000000
H    -2.978000000     2.258000000     3.196000000
H    -3.955000000     2.919000000     4.144000000
O    -1.931000000     0.874000000     2.894000000
H    -1.456000000     0.626000000     2.101000000
H    -2.498000000     0.124000000     3.077000000
O    -0.927000000    -1.840000000     6.850000000
H    -0.424000000    -1.146000000     6.424000000
H    -0.807000000    -1.683000000     7.786000000
O     4.809000000     1.688000000    -0.544000000
H     5.187000000     1.700000000     0.336000000
H     3.888000000     1.913000000    -0.412000000
O    -3.210000000     3.899000000    -0.077000000
H    -2.521000000     3.373000000    -0.482000000
H    -2.790000000     4.738000000     0.114000000
O     0.728000000    -4.250000000    -0.021000000
H     0.615000000    -5.181000000    -0.215000000
H     0.703000000    -4.201000000     0.934000000
