158
-3047.52875
C     0.211000000     1.397000000    -0.436000000
H     0.406000000     2.432000000    -0.703000000
C     0.216000000     0.944000000     0.895000000
H     0.292000000     1.614000000     1.747000000
C    -0.003000000    -0.386000000     1.164000000
H     0.025000000    -0.690000000     2.205000000
C    -0.187000000    -1.334000000     0.202000000
H    -0.268000000    -2.387000000     0.460000000
C    -0.215000000    -0.891000000    -1.130000000
H    -0.317000000    -1.595000000    -1.952000000
C    -0.069000000     0.462000000    -1.485000000
C    -0.003000000     0.921000000    -2.923000000
O     0.006000000     0.070000000    -3.755000000
O     0.033000000     2.095000000    -3.313000000
O    -2.358000000    -0.739000000     4.294000000
H    -2.104000000    -1.661000000     4.256000000
H    -2.786000000    -0.574000000     3.454000000
O     4.661000000     0.867000000     4.908000000
H     3.804000000     0.974000000     5.320000000
H     5.268000000     1.315000000     5.497000000
O     3.086000000     1.754000000    -7.204000000
H     2.419000000     1.099000000    -6.999000000
H     3.113000000     2.318000000    -6.431000000
O     0.154000000    -2.199000000    -7.722000000
H     0.607000000    -1.359000000    -7.786000000
H    -0.330000000    -2.148000000    -6.898000000
O     0.321000000     0.686000000    -6.345000000
H    -0.211000000     1.318000000    -6.828000000
H    -0.112000000     0.609000000    -5.495000000
O     2.853000000    -0.190000000    -0.074000000
H     2.004000000     0.130000000     0.232000000
H     3.189000000    -0.712000000     0.654000000
O     2.482000000     1.589000000     6.966000000
H     2.804000000     2.017000000     7.759000000
H     1.792000000     2.170000000     6.644000000
O    -0.110000000     4.720000000    -3.428000000
H    -0.262000000     4.961000000    -4.342000000
H    -0.006000000     3.769000000    -3.445000000
O     2.991000000     2.602000000     2.457000000
H     2.933000000     2.804000000     1.523000000
H     2.118000000     2.795000000     2.799000000
O     3.550000000     3.122000000    -0.205000000
H     3.719000000     2.974000000    -1.136000000
H     2.786000000     3.699000000    -0.190000000
O    -5.238000000    -3.170000000    -1.843000000
H    -5.823000000    -2.637000000    -2.381000000
H    -4.433000000    -2.656000000    -1.783000000
O    -1.557000000     1.983000000     3.946000000
H    -1.213000000     1.194000000     4.364000000
H    -2.237000000     2.295000000     4.543000000
O     2.233000000    -2.224000000    -4.686000000
H     2.338000000    -1.442000000    -4.145000000
H     1.452000000    -2.654000000    -4.337000000
O    -2.134000000     3.979000000    -5.457000000
H    -2.538000000     3.353000000    -4.855000000
H    -2.734000000     4.724000000    -5.466000000
O     2.669000000     2.359000000    -4.605000000
H     1.743000000     2.242000000    -4.394000000
H     3.088000000     1.553000000    -4.303000000
O     4.350000000     4.187000000     4.214000000
H     5.246000000     3.853000000     4.165000000
H     3.817000000     3.499000000     3.814000000
O     0.495000000    -3.675000000    -2.985000000
H    -0.203000000    -4.093000000    -2.480000000
H     1.246000000    -4.260000000    -2.885000000
O     5.174000000     1.350000000     1.503000000
H     4.572000000     1.559000000     2.217000000
H     4.804000000     1.792000000     0.739000000
O    -1.542000000    -3.598000000     3.682000000
H    -1.036000000    -4.253000000     3.201000000
H    -1.469000000    -3.865000000     4.599000000
O    -3.578000000    -0.780000000    -3.889000000
H    -3.401000000    -0.087000000    -4.525000000
H    -3.813000000    -0.313000000    -3.086000000
O     1.725000000     5.200000000     0.010000000
H     0.987000000     5.547000000     0.512000000
H     1.869000000     5.846000000    -0.681000000
O     2.465000000    -4.487000000     5.209000000
H     3.031000000    -5.067000000     5.719000000
H     2.007000000    -3.962000000     5.866000000
O     3.536000000     0.502000000    -2.772000000
H     3.208000000     0.335000000    -1.888000000
H     4.479000000     0.620000000    -2.660000000
O     3.663000000    -2.688000000    -1.450000000
H     4.557000000    -2.367000000    -1.330000000
H     3.116000000    -1.905000000    -1.384000000
O     5.410000000    -1.133000000     3.107000000
H     5.566000000    -0.589000000     2.334000000
H     5.275000000    -0.506000000     3.817000000
O     3.030000000    -4.958000000    -3.167000000
H     3.731000000    -5.570000000    -2.943000000
H     3.307000000    -4.125000000    -2.785000000
O     2.839000000     4.473000000    -2.767000000
H     2.690000000     3.815000000    -3.446000000
H     2.380000000     5.251000000    -3.083000000
O    -1.165000000     2.508000000    -7.612000000
H    -1.111000000     3.252000000    -7.012000000
H    -2.083000000     2.486000000    -7.884000000
O    -3.094000000     1.979000000    -3.714000000
H    -2.892000000     2.639000000    -3.051000000
H    -2.252000000     1.562000000    -3.899000000
O    -4.275000000     2.876000000    -0.410000000
H    -4.357000000     3.250000000     0.467000000
H    -3.410000000     3.154000000    -0.710000000
O     0.613000000     3.669000000     3.571000000
H    -0.193000000     3.162000000     3.473000000
H     0.707000000     3.789000000     4.516000000
O    -2.027000000    -3.975000000     6.370000000
H    -1.672000000    -4.780000000     6.745000000
H    -1.529000000    -3.274000000     6.791000000
O    -4.555000000    -2.459000000     6.047000000
H    -4.542000000    -2.111000000     5.155000000
H    -3.824000000    -3.075000000     6.074000000
O     2.103000000    -4.660000000     0.093000000
H     2.065000000    -5.383000000    -0.533000000
H     2.458000000    -3.927000000    -0.409000000
O     0.993000000     6.313000000     4.492000000
H     1.047000000     5.710000000     3.751000000
H     1.828000000     6.780000000     4.482000000
O    -3.229000000    -2.365000000     1.752000000
H    -4.044000000    -2.398000000     2.252000000
H    -2.732000000    -3.126000000     2.053000000
O    -0.609000000    -2.297000000    -5.071000000
H    -0.120000000    -2.818000000    -4.434000000
H    -0.353000000    -1.393000000    -4.887000000
O    -1.070000000    -5.255000000    -1.402000000
H    -2.027000000    -5.253000000    -1.383000000
H    -0.814000000    -5.577000000    -0.538000000
O    -1.548000000     7.108000000    -1.424000000
H    -0.940000000     6.701000000    -2.041000000
H    -1.171000000     6.927000000    -0.563000000
O    -0.699000000    -6.537000000     1.092000000
H     0.066000000    -6.252000000     1.591000000
H    -1.427000000    -6.468000000     1.708000000
O    -2.915000000    -3.399000000    -4.534000000
H    -2.044000000    -3.144000000    -4.836000000
H    -3.238000000    -2.634000000    -4.059000000
O    -5.902000000     1.260000000     3.204000000
H    -5.477000000     1.020000000     2.381000000
H    -5.206000000     1.663000000     3.724000000
O    -3.473000000     0.430000000     1.938000000
H    -2.708000000     0.974000000     2.124000000
H    -3.357000000     0.157000000     1.028000000
O    -2.608000000     0.008000000     6.771000000
H    -2.491000000    -0.074000000     5.824000000
H    -3.548000000    -0.111000000     6.907000000
O    -3.156000000    -1.162000000    -0.672000000
H    -2.277000000    -1.126000000    -1.049000000
H    -3.050000000    -1.666000000     0.135000000
O    -2.262000000     4.036000000    -1.920000000
H    -2.809000000     4.782000000    -2.167000000
H    -1.459000000     4.149000000    -2.428000000
O     1.079000000    -4.500000000     2.521000000
H     1.442000000    -4.554000000     1.636000000
H     1.802000000    -4.174000000     3.057000000
O    -5.116000000    -1.650000000     3.498000000
H    -4.841000000    -0.744000000     3.352000000
H    -6.043000000    -1.584000000     3.728000000
