158
-3006.52616
C    -0.211000000     1.172000000    -0.815000000
H    -0.270000000     2.037000000    -1.470000000
C     0.419000000     1.181000000     0.341000000
H     0.952000000     2.060000000     0.696000000
C     0.504000000     0.055000000     1.100000000
H     0.980000000     0.021000000     2.032000000
C    -0.087000000    -1.159000000     0.657000000
H    -0.091000000    -2.014000000     1.329000000
C    -0.753000000    -1.171000000    -0.549000000
H    -1.400000000    -1.997000000    -0.835000000
C    -0.779000000    -0.011000000    -1.338000000
C    -1.334000000    -0.025000000    -2.713000000
O    -1.828000000    -0.999000000    -3.181000000
O    -1.313000000     0.996000000    -3.308000000
O    -2.374000000    -3.169000000     3.579000000
H    -1.712000000    -3.801000000     3.297000000
H    -2.867000000    -2.969000000     2.783000000
O    -1.590000000    -7.012000000    -1.141000000
H    -2.143000000    -6.592000000    -0.483000000
H    -1.040000000    -7.615000000    -0.642000000
O     4.787000000    -0.761000000    -1.128000000
H     4.074000000    -0.127000000    -1.203000000
H     5.540000000    -0.242000000    -0.845000000
O     1.633000000     5.296000000     2.428000000
H     2.498000000     5.067000000     2.769000000
H     1.683000000     5.091000000     1.494000000
O     4.625000000    -1.263000000     6.257000000
H     4.917000000    -0.525000000     6.791000000
H     4.271000000    -0.861000000     5.464000000
O     1.509000000     3.228000000    -2.932000000
H     0.862000000     2.707000000    -3.408000000
H     1.987000000     3.698000000    -3.615000000
O    -3.506000000     2.508000000    -2.930000000
H    -2.762000000     1.921000000    -3.060000000
H    -3.363000000     2.888000000    -2.063000000
O     1.345000000    -1.175000000    -7.221000000
H     0.917000000    -1.253000000    -6.369000000
H     2.266000000    -1.018000000    -7.013000000
O    -3.275000000    -3.363000000    -3.433000000
H    -2.854000000    -2.550000000    -3.153000000
H    -3.955000000    -3.518000000    -2.777000000
O     1.745000000    -1.549000000     4.882000000
H     0.946000000    -1.585000000     5.409000000
H     2.068000000    -0.656000000     4.998000000
O    -0.434000000    -5.005000000    -2.792000000
H    -1.256000000    -4.793000000    -3.232000000
H    -0.685000000    -5.607000000    -2.092000000
O     2.863000000     2.201000000    -5.964000000
H     2.908000000     2.044000000    -6.908000000
H     2.046000000     1.784000000    -5.691000000
O    -2.605000000     5.044000000    -4.246000000
H    -1.671000000     5.007000000    -4.455000000
H    -2.727000000     4.370000000    -3.577000000
O    -0.516000000    -5.031000000     2.551000000
H     0.261000000    -4.517000000     2.332000000
H    -0.187000000    -5.739000000     3.105000000
O     1.315000000     5.064000000    -0.852000000
H     1.229000000     4.500000000    -1.620000000
H     2.240000000     5.309000000    -0.837000000
O    -5.033000000    -1.145000000    -4.916000000
H    -4.148000000    -0.817000000    -5.077000000
H    -5.134000000    -1.104000000    -3.965000000
O     2.360000000    -0.354000000    -4.009000000
H     2.326000000     0.260000000    -3.276000000
H     1.831000000    -1.098000000    -3.724000000
O     2.882000000     1.439000000    -1.244000000
H     2.323000000     1.902000000    -1.868000000
H     2.857000000     1.979000000    -0.454000000
O    -3.374000000    -2.242000000     1.407000000
H    -3.184000000    -1.314000000     1.547000000
H    -4.326000000    -2.305000000     1.485000000
O    -4.283000000    -5.802000000    -3.857000000
H    -5.201000000    -5.548000000    -3.760000000
H    -3.793000000    -4.994000000    -3.703000000
O     6.904000000    -2.724000000     1.984000000
H     6.306000000    -1.993000000     2.145000000
H     7.071000000    -3.092000000     2.851000000
O     1.761000000    -3.212000000    -3.366000000
H     1.153000000    -3.753000000    -2.862000000
H     2.536000000    -3.762000000    -3.477000000
O     2.596000000    -4.212000000     5.482000000
H     3.431000000    -3.984000000     5.891000000
H     2.303000000    -3.401000000     5.065000000
O    -4.672000000     2.790000000    -5.527000000
H    -4.239000000     2.504000000    -4.723000000
H    -4.814000000     3.728000000    -5.403000000
O    -4.237000000     1.413000000    -0.299000000
H    -4.074000000     2.356000000    -0.277000000
H    -4.699000000     1.269000000    -1.125000000
O    -0.847000000     2.333000000     3.431000000
H     0.016000000     2.504000000     3.808000000
H    -1.342000000     1.926000000     4.141000000
O    -0.875000000     6.814000000    -0.763000000
H    -0.245000000     6.098000000    -0.840000000
H    -1.641000000     6.415000000    -0.349000000
O    -2.800000000     0.554000000     1.829000000
H    -1.929000000     0.942000000     1.744000000
H    -3.253000000     0.804000000     1.023000000
O     5.437000000    -0.442000000     2.548000000
H     5.356000000     0.322000000     1.977000000
H     6.174000000    -0.233000000     3.123000000
O     2.190000000    -6.007000000     3.364000000
H     2.271000000    -5.413000000     4.110000000
H     2.204000000    -5.433000000     2.598000000
O    -1.383000000     4.360000000     1.683000000
H    -1.609000000     3.680000000     2.318000000
H    -0.489000000     4.147000000     1.413000000
O     3.092000000     1.162000000     6.425000000
H     3.728000000     1.839000000     6.193000000
H     3.149000000     1.096000000     7.379000000
O     4.215000000     4.388000000     3.327000000
H     4.713000000     3.962000000     4.025000000
H     4.807000000     4.382000000     2.574000000
O    -2.023000000     2.847000000    -6.620000000
H    -1.805000000     2.737000000    -7.545000000
H    -2.950000000     3.087000000    -6.619000000
O    -6.703000000    -1.856000000    -2.400000000
H    -6.982000000    -2.064000000    -1.509000000
H    -6.202000000    -1.045000000    -2.311000000
O    -2.492000000    -4.969000000     0.578000000
H    -1.926000000    -5.100000000     1.339000000
H    -2.568000000    -4.018000000     0.498000000
O    -2.038000000    -3.098000000    -6.209000000
H    -1.344000000    -2.566000000    -5.820000000
H    -2.670000000    -3.222000000    -5.500000000
O     2.113000000    -5.824000000     0.478000000
H     1.756000000    -6.316000000    -0.262000000
H     1.807000000    -4.928000000     0.339000000
O    -2.707000000    -0.112000000    -5.715000000
H    -2.292000000    -0.448000000    -4.921000000
H    -2.566000000     0.834000000    -5.678000000
O     0.530000000     0.912000000     5.817000000
H     1.451000000     1.162000000     5.890000000
H     0.187000000     0.999000000     6.706000000
O     1.932000000    -3.414000000     2.302000000
H     1.884000000    -2.662000000     2.892000000
H     2.716000000    -3.256000000     1.776000000
O    -3.394000000     4.133000000    -0.430000000
H    -2.884000000     4.014000000     0.372000000
H    -3.783000000     5.003000000    -0.340000000
O    -0.911000000    -2.035000000     5.841000000
H    -1.456000000    -2.190000000     5.070000000
H    -1.065000000    -2.797000000     6.400000000
O    -5.010000000    -3.704000000    -1.065000000
H    -4.740000000    -4.603000000    -0.878000000
H    -4.932000000    -3.251000000    -0.226000000
O     0.026000000    -1.959000000    -4.826000000
H    -0.539000000    -1.499000000    -4.205000000
H     0.580000000    -2.515000000    -4.279000000
O    -1.425000000     0.057000000     7.493000000
H    -1.259000000    -0.279000000     8.374000000
H    -1.104000000    -0.632000000     6.911000000
O     0.006000000     1.874000000    -5.372000000
H    -0.411000000     1.598000000    -4.555000000
H    -0.716000000     2.197000000    -5.912000000
O     4.157000000    -3.070000000     0.552000000
H     4.020000000    -2.274000000     0.038000000
H     5.038000000    -3.358000000     0.315000000
