158
-3049.33990
C     0.762000000     0.071000000     1.268000000
H     1.140000000     0.242000000     2.273000000
C    -0.144000000     1.055000000     0.856000000
H    -0.492000000     1.838000000     1.525000000
C    -0.743000000     0.890000000    -0.392000000
H    -1.490000000     1.663000000    -0.678000000
C    -0.568000000    -0.273000000    -1.108000000
H    -1.201000000    -0.452000000    -1.974000000
C     0.364000000    -1.175000000    -0.705000000
H     0.622000000    -2.032000000    -1.321000000
C     1.082000000    -1.063000000     0.495000000
C     2.145000000    -2.073000000     0.878000000
O     2.315000000    -3.038000000     0.187000000
O     2.695000000    -2.055000000     1.968000000
O    -5.215000000     4.241000000    -0.679000000
H    -4.704000000     3.652000000    -1.234000000
H    -6.088000000     3.848000000    -0.654000000
O     0.520000000    -4.601000000    -0.801000000
H     1.102000000    -3.842000000    -0.753000000
H     0.916000000    -5.244000000    -0.214000000
O     4.561000000    -4.621000000     0.582000000
H     3.724000000    -4.201000000     0.384000000
H     4.417000000    -5.546000000     0.386000000
O    -1.017000000    -3.253000000    -5.210000000
H    -1.115000000    -2.334000000    -4.960000000
H    -1.154000000    -3.739000000    -4.397000000
O     2.678000000    -0.926000000     4.449000000
H     2.619000000    -1.290000000     3.566000000
H     3.467000000    -0.384000000     4.433000000
O    -2.368000000     4.519000000    -1.670000000
H    -2.718000000     4.914000000    -0.872000000
H    -2.434000000     5.211000000    -2.328000000
O     2.511000000     1.903000000    -1.223000000
H     2.315000000     1.289000000    -0.515000000
H     3.458000000     2.032000000    -1.173000000
O    -2.325000000     0.232000000     4.019000000
H    -1.455000000     0.532000000     4.283000000
H    -2.159000000    -0.549000000     3.491000000
O     0.858000000     4.217000000    -1.528000000
H     1.391000000     3.473000000    -1.806000000
H    -0.031000000     3.990000000    -1.800000000
O    -0.863000000    -3.399000000     3.721000000
H    -1.142000000    -2.769000000     3.057000000
H     0.093000000    -3.390000000     3.672000000
O    -3.503000000     4.183000000     1.880000000
H    -3.896000000     4.611000000     1.120000000
H    -2.578000000     4.426000000     1.840000000
O    -4.927000000    -1.970000000     0.183000000
H    -4.657000000    -1.120000000     0.531000000
H    -5.786000000    -2.127000000     0.576000000
O     1.937000000    -4.710000000    -4.380000000
H     2.837000000    -5.028000000    -4.299000000
H     1.408000000    -5.376000000    -3.941000000
O     3.756000000    -5.130000000     5.787000000
H     3.982000000    -4.683000000     4.971000000
H     3.440000000    -4.433000000     6.362000000
O    -2.118000000    -4.619000000    -1.943000000
H    -2.455000000    -3.788000000    -1.608000000
H    -1.223000000    -4.667000000    -1.608000000
O     3.950000000     1.874000000     1.702000000
H     3.127000000     1.872000000     2.191000000
H     4.573000000     1.435000000     2.281000000
O     5.307000000     0.059000000     4.245000000
H     5.634000000    -0.534000000     4.920000000
H     6.039000000     0.157000000     3.636000000
O    -0.417000000     3.360000000     5.471000000
H     0.234000000     4.018000000     5.718000000
H    -0.148000000     2.570000000     5.940000000
O    -2.876000000    -2.105000000    -1.734000000
H    -2.852000000    -1.303000000    -2.257000000
H    -3.622000000    -1.985000000    -1.146000000
O     6.776000000    -3.715000000     1.990000000
H     7.279000000    -4.463000000     2.312000000
H     5.999000000    -4.105000000     1.588000000
O    -1.161000000    -0.568000000    -4.929000000
H    -2.111000000    -0.470000000    -4.876000000
H    -0.853000000     0.272000000    -5.271000000
O     4.485000000    -4.219000000    -2.983000000
H     5.330000000    -4.240000000    -2.534000000
H     4.098000000    -3.382000000    -2.725000000
O     2.999000000    -2.574000000     6.780000000
H     3.110000000    -2.244000000     5.888000000
H     3.680000000    -2.131000000     7.286000000
O    -0.960000000     5.348000000     2.001000000
H    -0.272000000     5.668000000     2.584000000
H    -0.784000000     5.778000000     1.164000000
O    -4.298000000     0.794000000    -1.880000000
H    -3.891000000     1.198000000    -1.113000000
H    -5.195000000     0.604000000    -1.603000000
O     1.307000000     4.533000000    -4.455000000
H     0.731000000     3.841000000    -4.131000000
H     1.608000000     4.983000000    -3.666000000
O    -0.044000000     2.286000000    -3.585000000
H    -0.360000000     2.257000000    -4.488000000
H     0.583000000     1.565000000    -3.527000000
O     2.230000000     0.672000000    -3.904000000
H     2.088000000    -0.274000000    -3.950000000
H     2.480000000     0.833000000    -2.994000000
O    -6.798000000     1.368000000    -0.804000000
H    -7.029000000     0.445000000    -0.909000000
H    -6.895000000     1.534000000     0.133000000
O    -4.449000000     0.425000000     1.338000000
H    -5.355000000     0.418000000     1.648000000
H    -3.978000000     0.951000000     1.985000000
O    -0.352000000     6.556000000    -0.497000000
H     0.085000000     5.708000000    -0.569000000
H     0.352000000     7.197000000    -0.600000000
O     7.146000000     0.419000000     1.967000000
H     7.902000000    -0.152000000     1.826000000
H     6.412000000    -0.054000000     1.573000000
O     6.869000000    -4.700000000    -0.966000000
H     7.567000000    -4.469000000    -0.352000000
H     6.072000000    -4.691000000    -0.437000000
O     0.208000000     0.266000000     5.041000000
H     0.552000000     0.714000000     5.814000000
H     0.967000000    -0.177000000     4.663000000
O     4.598000000    -3.288000000     3.762000000
H     3.944000000    -2.644000000     3.492000000
H     5.282000000    -3.230000000     3.095000000
O     3.383000000    -1.909000000    -1.983000000
H     2.599000000    -1.927000000    -2.531000000
H     3.133000000    -2.384000000    -1.191000000
O    -3.808000000     0.039000000    -4.518000000
H    -4.298000000     0.850000000    -4.655000000
H    -3.989000000    -0.199000000    -3.609000000
O     3.079000000     4.539000000     0.171000000
H     2.357000000     4.235000000    -0.378000000
H     3.107000000     3.915000000     0.897000000
O    -5.679000000     2.055000000    -4.184000000
H    -6.224000000     2.794000000    -4.455000000
H    -6.302000000     1.394000000    -3.884000000
O    -2.952000000     3.057000000    -4.146000000
H    -3.661000000     2.558000000    -3.740000000
H    -2.315000000     3.183000000    -3.444000000
O     1.939000000     2.878000000     3.355000000
H     1.046000000     2.877000000     3.700000000
H     2.362000000     3.621000000     3.786000000
O     2.113000000    -7.225000000    -0.123000000
H     1.680000000    -7.393000000    -0.960000000
H     3.030000000    -7.455000000    -0.278000000
O     1.377000000    -1.878000000    -3.640000000
H     1.531000000    -2.714000000    -4.081000000
H     0.463000000    -1.671000000    -3.832000000
O    -5.719000000     3.169000000     3.202000000
H    -4.800000000     3.327000000     2.988000000
H    -6.107000000     4.043000000     3.251000000
O     0.572000000    -6.806000000     3.062000000
H     0.666000000    -5.879000000     2.843000000
H     1.232000000    -7.247000000     2.527000000
O     5.002000000    -0.963000000     0.833000000
H     4.370000000    -1.599000000     1.167000000
H     4.880000000    -0.978000000    -0.116000000
O    -1.668000000    -1.614000000     1.833000000
H    -1.997000000    -2.237000000     1.185000000
H    -1.530000000    -0.806000000     1.339000000
O     1.860000000    -4.368000000     3.099000000
H     2.268000000    -3.631000000     2.644000000
H     2.596000000    -4.910000000     3.385000000
