158
-3052.63782
C     0.976000000     1.116000000    -0.011000000
H     1.639000000     1.972000000     0.088000000
C     0.624000000     0.393000000     1.116000000
H     0.928000000     0.748000000     2.098000000
C    -0.285000000    -0.629000000     0.967000000
H    -0.744000000    -1.061000000     1.836000000
C    -0.814000000    -1.022000000    -0.266000000
H    -1.474000000    -1.886000000    -0.250000000
C    -0.390000000    -0.374000000    -1.353000000
H    -0.889000000    -0.614000000    -2.288000000
C     0.506000000     0.732000000    -1.282000000
C     0.753000000     1.546000000    -2.497000000
O    -0.116000000     1.555000000    -3.358000000
O     1.693000000     2.324000000    -2.661000000
O    -2.660000000     1.351000000     4.430000000
H    -2.313000000     1.653000000     5.269000000
H    -2.263000000     1.933000000     3.783000000
O    -1.164000000    -5.779000000     1.861000000
H    -2.102000000    -5.622000000     1.964000000
H    -0.810000000    -5.705000000     2.747000000
O     1.267000000     0.397000000     4.596000000
H     1.906000000     1.106000000     4.664000000
H     1.701000000    -0.265000000     4.057000000
O    -4.433000000    -0.315000000     2.025000000
H    -4.403000000     0.254000000     2.794000000
H    -4.382000000     0.285000000     1.281000000
O     5.450000000     5.563000000    -2.076000000
H     4.915000000     6.131000000    -2.630000000
H     5.189000000     4.675000000    -2.321000000
O     3.500000000     6.327000000    -4.227000000
H     2.659000000     6.001000000    -4.549000000
H     3.270000000     6.903000000    -3.499000000
O     3.440000000    -1.985000000     0.196000000
H     3.677000000    -2.802000000    -0.243000000
H     3.813000000    -1.298000000    -0.358000000
O    -4.105000000    -5.567000000    -2.604000000
H    -4.822000000    -5.329000000    -3.191000000
H    -3.851000000    -4.743000000    -2.188000000
O     4.335000000     2.890000000    -2.062000000
H     4.041000000     3.368000000    -1.287000000
H     3.528000000     2.636000000    -2.509000000
O     1.245000000     5.498000000    -5.147000000
H     0.484000000     5.348000000    -4.587000000
H     0.975000000     5.179000000    -6.009000000
O    -0.533000000     4.548000000     1.765000000
H     0.320000000     4.923000000     1.982000000
H    -0.629000000     3.808000000     2.365000000
O     3.190000000    -1.240000000     2.684000000
H     3.435000000    -0.317000000     2.751000000
H     3.576000000    -1.530000000     1.857000000
O    -0.688000000    -3.003000000     3.967000000
H    -1.475000000    -2.740000000     3.492000000
H    -0.706000000    -2.479000000     4.769000000
O    -0.065000000    -4.455000000    -4.232000000
H    -0.847000000    -3.979000000    -4.509000000
H     0.481000000    -4.497000000    -5.017000000
O    -2.986000000     1.284000000    -0.110000000
H    -2.260000000     0.749000000     0.210000000
H    -2.665000000     1.659000000    -0.930000000
O    -3.909000000     2.598000000    -4.836000000
H    -4.253000000     2.332000000    -3.984000000
H    -4.581000000     2.327000000    -5.461000000
O    -5.383000000     1.302000000     4.131000000
H    -5.552000000     2.151000000     3.724000000
H    -4.524000000     1.399000000     4.541000000
O     2.312000000    -2.925000000    -3.029000000
H     1.857000000    -3.742000000    -3.232000000
H     1.709000000    -2.237000000    -3.310000000
O     5.490000000     3.352000000     2.266000000
H     4.690000000     3.799000000     1.988000000
H     6.000000000     4.029000000     2.711000000
O     0.056000000     4.435000000    -2.700000000
H    -0.464000000     3.828000000    -3.227000000
H     0.824000000     3.927000000    -2.438000000
O     0.674000000    -0.454000000    -5.370000000
H     0.159000000     0.348000000    -5.288000000
H     1.503000000    -0.252000000    -4.934000000
O    -2.425000000    -3.539000000    -4.631000000
H    -2.628000000    -3.539000000    -3.695000000
H    -3.093000000    -4.102000000    -5.021000000
O    -3.523000000    -0.902000000    -4.103000000
H    -3.529000000    -0.886000000    -5.060000000
H    -2.926000000    -1.616000000    -3.880000000
O     2.402000000     2.203000000    -5.246000000
H     2.781000000     1.473000000    -4.757000000
H     1.991000000     2.752000000    -4.579000000
O     2.144000000     5.342000000     2.508000000
H     2.117000000     6.237000000     2.847000000
H     2.285000000     4.797000000     3.283000000
O     4.353000000     0.254000000    -1.583000000
H     4.130000000     1.165000000    -1.774000000
H     5.172000000     0.104000000    -2.056000000
O     0.280000000     5.897000000    -0.518000000
H    -0.094000000     5.401000000    -1.246000000
H    -0.136000000     5.529000000     0.262000000
O    -4.934000000     0.673000000    -2.070000000
H    -4.574000000     0.016000000    -2.666000000
H    -4.298000000     0.724000000    -1.357000000
O     1.316000000    -3.418000000     1.206000000
H     2.045000000    -3.054000000     0.704000000
H     0.942000000    -2.666000000     1.665000000
O    -0.488000000     2.834000000     3.940000000
H    -0.832000000     3.407000000     4.625000000
H     0.154000000     2.283000000     4.388000000
O    -1.027000000    -1.928000000    -6.789000000
H    -0.415000000    -1.450000000    -6.229000000
H    -1.551000000    -2.450000000    -6.182000000
O     3.819000000     4.459000000     0.419000000
H     3.067000000     4.625000000     0.987000000
H     4.221000000     5.320000000     0.297000000
O    -2.628000000    -3.274000000    -1.954000000
H    -1.831000000    -3.494000000    -1.473000000
H    -3.202000000    -2.878000000    -1.298000000
O    -3.563000000     4.671000000    -1.369000000
H    -3.093000000     3.869000000    -1.598000000
H    -4.403000000     4.594000000    -1.822000000
O    -2.445000000     2.328000000    -2.537000000
H    -1.664000000     1.946000000    -2.936000000
H    -2.843000000     2.846000000    -3.236000000
O    -3.636000000    -4.997000000     4.353000000
H    -4.516000000    -5.086000000     3.986000000
H    -3.234000000    -4.295000000     3.841000000
O    -1.981000000    -1.209000000     5.681000000
H    -2.499000000    -0.482000000     5.336000000
H    -1.306000000    -0.790000000     6.215000000
O    -0.299000000     0.236000000     7.541000000
H     0.314000000     0.354000000     6.815000000
H     0.187000000    -0.283000000     8.182000000
O    -5.284000000    -2.225000000    -1.439000000
H    -5.910000000    -2.945000000    -1.524000000
H    -5.821000000    -1.468000000    -1.204000000
O    -2.891000000    -2.756000000     2.274000000
H    -3.263000000    -1.892000000     2.097000000
H    -2.991000000    -3.233000000     1.451000000
O     1.216000000    -4.868000000     3.506000000
H     1.510000000    -4.508000000     2.670000000
H     0.560000000    -4.244000000     3.818000000
O     3.384000000    -0.107000000    -4.156000000
H     3.879000000    -0.916000000    -4.282000000
H     3.207000000    -0.078000000    -3.216000000
O    -4.140000000    -4.681000000     0.646000000
H    -4.993000000    -4.248000000     0.618000000
H    -4.346000000    -5.613000000     0.719000000
O    -1.079000000     2.279000000    -5.713000000
H    -0.594000000     2.113000000    -4.904000000
H    -1.998000000     2.285000000    -5.444000000
O    -1.178000000    -5.144000000     6.098000000
H    -2.055000000    -5.148000000     5.714000000
H    -0.759000000    -4.366000000     5.731000000
O    -0.594000000    -4.241000000    -0.378000000
H     0.109000000    -3.747000000     0.044000000
H    -0.580000000    -5.095000000     0.054000000
O     0.248000000     4.302000000    -7.134000000
H     0.291000000     3.519000000    -6.586000000
H     0.077000000     3.968000000    -8.015000000
O     3.911000000     1.240000000     3.822000000
H     4.448000000     1.806000000     3.267000000
H     4.516000000     0.915000000     4.489000000
