158
-3056.10775
C     0.740000000     1.229000000    -0.399000000
H     1.358000000     2.094000000    -0.629000000
C     0.794000000     0.657000000     0.880000000
H     1.376000000     1.057000000     1.707000000
C    -0.002000000    -0.489000000     1.165000000
H    -0.032000000    -0.858000000     2.128000000
C    -0.670000000    -1.111000000     0.096000000
H    -1.266000000    -1.997000000     0.297000000
C    -0.685000000    -0.553000000    -1.206000000
H    -1.307000000    -1.010000000    -1.972000000
C     0.013000000     0.623000000    -1.432000000
C     0.055000000     1.234000000    -2.869000000
O    -0.503000000     0.724000000    -3.802000000
O     0.649000000     2.291000000    -3.008000000
O    -1.752000000     2.389000000     1.797000000
H    -1.106000000     2.757000000     1.194000000
H    -2.561000000     2.349000000     1.287000000
O     3.382000000    -1.204000000     3.462000000
H     2.737000000    -1.578000000     2.862000000
H     3.713000000    -1.953000000     3.957000000
O    -3.794000000    -2.658000000     0.726000000
H    -4.637000000    -2.691000000     1.177000000
H    -4.016000000    -2.726000000    -0.203000000
O    -5.937000000     0.025000000     2.318000000
H    -5.528000000    -0.227000000     3.146000000
H    -6.635000000     0.630000000     2.570000000
O     3.871000000    -3.663000000     5.430000000
H     3.223000000    -4.194000000     4.967000000
H     3.684000000    -3.811000000     6.357000000
O     4.503000000     4.507000000    -2.090000000
H     3.631000000     4.122000000    -2.002000000
H     4.398000000     5.188000000    -2.755000000
O    -0.649000000     4.792000000    -7.042000000
H    -0.550000000     4.270000000    -6.246000000
H     0.198000000     5.225000000    -7.152000000
O     2.286000000     5.304000000     0.270000000
H     2.558000000     4.923000000    -0.565000000
H     1.990000000     6.187000000     0.046000000
O    -4.254000000     1.634000000     1.115000000
H    -4.683000000     1.089000000     1.774000000
H    -4.509000000     1.244000000     0.279000000
O    -3.443000000     1.648000000     4.066000000
H    -3.017000000     2.092000000     3.333000000
H    -3.019000000     0.791000000     4.105000000
O     4.371000000    -1.520000000     0.469000000
H     4.538000000    -1.809000000    -0.428000000
H     3.473000000    -1.188000000     0.450000000
O     1.456000000     5.997000000    -4.714000000
H     1.826000000     5.677000000    -5.536000000
H     1.149000000     6.881000000    -4.918000000
O     2.424000000     3.634000000     2.575000000
H     3.054000000     2.914000000     2.526000000
H     2.370000000     3.965000000     1.679000000
O     1.897000000    -1.936000000    -1.046000000
H     1.890000000    -1.867000000    -2.001000000
H     1.084000000    -1.515000000    -0.770000000
O     0.378000000    -3.480000000     6.419000000
H     1.306000000    -3.401000000     6.641000000
H     0.374000000    -3.809000000     5.521000000
O    -4.211000000    -2.784000000    -2.062000000
H    -5.009000000    -2.560000000    -2.541000000
H    -3.826000000    -3.505000000    -2.561000000
O    -2.644000000    -1.261000000     2.792000000
H    -2.568000000    -1.366000000     1.843000000
H    -3.497000000    -1.638000000     3.007000000
O     1.236000000     5.747000000     3.767000000
H     1.789000000     5.202000000     3.207000000
H     1.459000000     5.479000000     4.658000000
O    -0.958000000     5.787000000    -3.482000000
H    -1.087000000     4.840000000    -3.546000000
H    -0.072000000     5.930000000    -3.814000000
O    -3.074000000    -1.818000000    -6.940000000
H    -2.354000000    -1.286000000    -6.600000000
H    -2.651000000    -2.613000000    -7.264000000
O    -0.171000000    -0.243000000    -6.267000000
H    -0.424000000     0.148000000    -5.431000000
H    -0.131000000     0.495000000    -6.875000000
O    -2.757000000     3.769000000    -1.118000000
H    -3.688000000     3.987000000    -1.158000000
H    -2.500000000     3.645000000    -2.032000000
O    -0.763000000     2.557000000     6.396000000
H    -1.269000000     2.434000000     5.593000000
H    -0.849000000     1.726000000     6.863000000
O     1.282000000    -1.365000000    -3.810000000
H     0.762000000    -0.562000000    -3.783000000
H     0.906000000    -1.870000000    -4.531000000
O     3.848000000     1.520000000    -3.671000000
H     4.411000000     1.287000000    -2.933000000
H     2.959000000     1.364000000    -3.353000000
O     1.326000000     1.971000000    -8.003000000
H     1.382000000     2.456000000    -7.180000000
H     1.880000000     2.465000000    -8.609000000
O     4.046000000     0.569000000     5.591000000
H     3.403000000     1.239000000     5.825000000
H     3.768000000     0.261000000     4.729000000
O    -3.719000000     1.813000000    -6.806000000
H    -2.943000000     1.820000000    -7.367000000
H    -3.463000000     1.285000000    -6.049000000
O     1.909000000     4.426000000    -2.215000000
H     1.688000000     5.138000000    -2.815000000
H     1.333000000     3.707000000    -2.473000000
O     3.208000000    -3.865000000     1.863000000
H     3.280000000    -3.282000000     1.108000000
H     4.040000000    -4.338000000     1.880000000
O    -1.906000000    -2.215000000     7.401000000
H    -2.182000000    -2.717000000     8.168000000
H    -1.250000000    -2.767000000     6.977000000
O     0.380000000     2.146000000     3.706000000
H     1.189000000     2.627000000     3.532000000
H    -0.209000000     2.404000000     2.997000000
O     4.184000000     1.226000000     2.604000000
H     3.975000000     0.346000000     2.916000000
H     5.104000000     1.351000000     2.838000000
O     3.944000000    -2.010000000    -4.161000000
H     3.760000000    -2.365000000    -5.031000000
H     3.100000000    -1.677000000    -3.855000000
O    -2.506000000     3.594000000    -4.352000000
H    -2.771000000     3.919000000    -5.212000000
H    -2.065000000     2.764000000    -4.535000000
O    -3.075000000     0.290000000    -4.519000000
H    -2.185000000     0.363000000    -4.173000000
H    -3.573000000    -0.121000000    -3.812000000
O    -0.666000000    -0.312000000     4.377000000
H    -1.294000000    -0.513000000     3.684000000
H    -0.136000000     0.402000000     4.021000000
O     2.406000000     2.753000000     5.870000000
H     2.343000000     3.209000000     6.709000000
H     1.515000000     2.770000000     5.521000000
O     0.004000000    -0.144000000     7.068000000
H    -0.849000000    -0.551000000     7.223000000
H     0.055000000    -0.050000000     6.117000000
O    -5.251000000    -1.288000000     4.392000000
H    -4.911000000    -0.788000000     5.134000000
H    -5.935000000    -1.842000000     4.770000000
O    -0.501000000     4.539000000     0.258000000
H     0.117000000     4.670000000    -0.462000000
H    -1.335000000     4.354000000    -0.174000000
O    -2.691000000    -6.107000000    -0.521000000
H    -2.067000000    -6.124000000    -1.247000000
H    -3.547000000    -6.211000000    -0.939000000
O    -0.689000000    -3.406000000     3.666000000
H    -1.156000000    -3.608000000     2.855000000
H    -1.156000000    -2.655000000     4.031000000
O     1.573000000    -4.761000000     3.901000000
H     2.136000000    -4.528000000     3.163000000
H     0.730000000    -4.357000000     3.697000000
O    -1.478000000    -4.293000000     1.127000000
H    -2.211000000    -3.677000000     1.139000000
H    -1.808000000    -5.048000000     0.640000000
O     0.944000000     3.228000000    -5.490000000
H     0.873000000     2.831000000    -4.622000000
H     1.880000000     3.393000000    -5.602000000
O     1.164000000    -4.505000000    -0.624000000
H     1.445000000    -3.679000000    -1.018000000
H     0.503000000    -4.251000000     0.020000000
O     3.612000000     3.503000000    -6.109000000
H     3.935000000     3.078000000    -6.904000000
H     4.353000000     3.474000000    -5.504000000
