158
-3020.39158
C     0.513000000     0.745000000    -1.202000000
H     0.852000000     1.398000000    -2.003000000
C     1.274000000     0.492000000    -0.032000000
H     2.290000000     0.833000000     0.149000000
C     0.683000000    -0.212000000     1.016000000
H     1.226000000    -0.420000000     1.935000000
C    -0.613000000    -0.810000000     0.890000000
H    -1.011000000    -1.545000000     1.584000000
C    -1.336000000    -0.548000000    -0.261000000
H    -2.312000000    -0.995000000    -0.434000000
C    -0.841000000     0.285000000    -1.314000000
C    -1.775000000     0.725000000    -2.530000000
O    -2.821000000     0.183000000    -2.713000000
O    -1.376000000     1.564000000    -3.267000000
O    -2.726000000     1.749000000     1.505000000
H    -3.213000000     1.896000000     0.695000000
H    -1.842000000     2.060000000     1.314000000
O     3.912000000    -3.231000000     2.266000000
H     3.063000000    -3.478000000     1.900000000
H     4.041000000    -3.833000000     2.999000000
O     6.644000000    -2.690000000     0.965000000
H     6.096000000    -2.966000000     0.231000000
H     6.024000000    -2.381000000     1.625000000
O     6.648000000     1.004000000     3.406000000
H     7.169000000     1.764000000     3.667000000
H     5.952000000     1.368000000     2.859000000
O    -3.853000000    -3.541000000     0.690000000
H    -4.148000000    -4.382000000     1.039000000
H    -4.031000000    -3.596000000    -0.249000000
O     0.803000000     4.951000000    -1.299000000
H     0.223000000     4.820000000    -2.050000000
H     0.981000000     5.892000000    -1.296000000
O     3.631000000     4.865000000    -1.551000000
H     2.688000000     4.887000000    -1.710000000
H     3.724000000     5.091000000    -0.626000000
O    -1.135000000     6.903000000    -2.496000000
H    -1.694000000     7.374000000    -3.114000000
H    -1.535000000     6.036000000    -2.423000000
O     3.522000000    -5.648000000     4.424000000
H     3.635000000    -4.824000000     4.897000000
H     4.091000000    -6.267000000     4.881000000
O    -0.453000000     3.138000000     0.450000000
H    -0.422000000     3.949000000    -0.057000000
H     0.273000000     2.616000000     0.111000000
O    -5.147000000     0.312000000     3.739000000
H    -4.704000000    -0.484000000     3.444000000
H    -5.415000000     0.119000000     4.637000000
O     4.465000000    -3.007000000    -0.516000000
H     3.987000000    -3.572000000    -1.122000000
H     3.951000000    -3.032000000     0.291000000
O     0.535000000     0.853000000     4.845000000
H     0.710000000     1.441000000     5.579000000
H     1.355000000     0.375000000     4.719000000
O     0.016000000    -3.279000000    -1.145000000
H    -0.555000000    -3.652000000    -1.816000000
H     0.120000000    -2.362000000    -1.401000000
O    -3.736000000    -5.135000000     4.157000000
H    -2.795000000    -5.297000000     4.086000000
H    -3.842000000    -4.218000000     3.905000000
O    -0.611000000     4.195000000    -7.392000000
H    -0.137000000     4.818000000    -7.943000000
H     0.074000000     3.714000000    -6.929000000
O     1.423000000     1.275000000    -7.388000000
H     1.828000000     1.975000000    -6.876000000
H     0.755000000     0.910000000    -6.808000000
O    -4.383000000    -2.513000000     3.347000000
H    -4.465000000    -2.594000000     2.397000000
H    -5.219000000    -2.832000000     3.688000000
O     2.481000000     3.113000000     3.577000000
H     2.056000000     2.266000000     3.715000000
H     1.777000000     3.754000000     3.678000000
O     4.719000000     3.982000000     4.973000000
H     5.051000000     3.109000000     5.180000000
H     3.853000000     3.825000000     4.595000000
O     5.417000000     2.839000000    -1.686000000
H     4.902000000     3.623000000    -1.498000000
H     4.963000000     2.424000000    -2.419000000
O    -3.105000000     3.942000000    -6.289000000
H    -3.016000000     3.022000000    -6.037000000
H    -2.267000000     4.160000000    -6.698000000
O    -2.250000000    -1.245000000    -6.504000000
H    -2.381000000    -1.517000000    -5.595000000
H    -2.821000000    -0.484000000    -6.610000000
O    -4.022000000     2.084000000    -0.872000000
H    -3.659000000     1.608000000    -1.619000000
H    -4.921000000     1.766000000    -0.799000000
O    -1.965000000    -2.450000000    -3.742000000
H    -2.348000000    -1.691000000    -3.302000000
H    -2.567000000    -3.168000000    -3.549000000
O    -7.098000000    -1.201000000    -5.334000000
H    -6.677000000    -1.836000000    -5.913000000
H    -6.449000000    -1.030000000    -4.652000000
O     1.769000000    -0.487000000    -3.799000000
H     1.412000000    -1.368000000    -3.911000000
H     1.488000000    -0.014000000    -4.582000000
O     5.685000000    -0.811000000    -2.004000000
H     6.302000000    -0.420000000    -1.385000000
H     5.192000000    -1.445000000    -1.482000000
O     0.825000000     3.597000000    -3.936000000
H     1.476000000     3.347000000    -4.592000000
H     0.232000000     2.847000000    -3.890000000
O     3.312000000     4.908000000     1.347000000
H     3.080000000     5.803000000     1.593000000
H     3.013000000     4.372000000     2.081000000
O     1.560000000    -4.044000000     1.057000000
H     0.881000000    -3.829000000     0.418000000
H     1.801000000    -4.948000000     0.856000000
O    -2.285000000     1.022000000     4.457000000
H    -1.356000000     0.892000000     4.649000000
H    -2.296000000     1.399000000     3.577000000
O     7.209000000     0.543000000    -0.076000000
H     8.068000000     0.847000000     0.218000000
H     6.602000000     0.851000000     0.596000000
O     2.376000000    -3.123000000     5.383000000
H     1.458000000    -3.155000000     5.112000000
H     2.591000000    -2.190000000     5.389000000
O     3.987000000     0.953000000    -3.338000000
H     3.049000000     0.919000000    -3.150000000
H     4.354000000     0.208000000    -2.863000000
O     2.965000000    -0.144000000     4.355000000
H     3.211000000    -0.047000000     3.435000000
H     3.709000000     0.212000000     4.841000000
O     0.474000000    -2.665000000    -5.133000000
H     0.286000000    -3.599000000    -5.228000000
H    -0.325000000    -2.297000000    -4.756000000
O    -3.029000000     1.445000000    -5.545000000
H    -3.986000000     1.453000000    -5.548000000
H    -2.794000000     1.046000000    -4.708000000
O    -5.273000000    -0.608000000    -3.387000000
H    -4.361000000    -0.343000000    -3.270000000
H    -5.468000000    -1.142000000    -2.616000000
O    -2.648000000    -1.395000000     5.522000000
H    -3.070000000    -1.927000000     4.847000000
H    -2.791000000    -0.492000000     5.239000000
O    -1.738000000     4.105000000    -2.094000000
H    -1.699000000     3.459000000    -2.799000000
H    -2.417000000     3.778000000    -1.506000000
O    -4.844000000    -3.036000000    -1.858000000
H    -5.770000000    -2.995000000    -2.097000000
H    -4.433000000    -3.517000000    -2.576000000
O    -0.850000000    -5.961000000     4.218000000
H    -1.059000000    -5.398000000     4.963000000
H    -0.975000000    -5.401000000     3.452000000
O    -1.280000000    -4.245000000     2.011000000
H    -0.457000000    -3.836000000     1.745000000
H    -1.954000000    -3.758000000     1.536000000
O    -0.159000000     0.333000000    -5.594000000
H    -0.605000000     0.810000000    -4.895000000
H    -0.857000000    -0.144000000    -6.043000000
O    -4.522000000     4.679000000    -0.294000000
H    -4.822000000     5.125000000    -1.086000000
H    -4.497000000     3.753000000    -0.536000000
O     4.551000000     1.956000000     1.217000000
H     4.030000000     2.610000000     1.683000000
H     4.601000000     2.285000000     0.320000000
O     4.416000000     2.596000000    -5.396000000
H     4.307000000     1.933000000    -4.715000000
H     5.362000000     2.637000000    -5.540000000
