158
-3058.90288
C     0.453000000     0.391000000    -1.313000000
H     0.980000000     0.670000000    -2.221000000
C     1.309000000    -0.121000000    -0.292000000
H     2.377000000    -0.249000000    -0.446000000
C     0.684000000    -0.486000000     0.883000000
H     1.310000000    -0.851000000     1.658000000
C    -0.671000000    -0.447000000     1.047000000
H    -1.175000000    -0.646000000     1.990000000
C    -1.463000000     0.103000000     0.040000000
H    -2.526000000     0.193000000     0.249000000
C    -0.891000000     0.519000000    -1.196000000
C    -1.787000000     1.056000000    -2.278000000
O    -2.902000000     1.452000000    -2.017000000
O    -1.247000000     1.403000000    -3.300000000
O    -3.079000000     1.698000000     2.269000000
H    -3.612000000     2.110000000     1.589000000
H    -2.179000000     1.933000000     2.043000000
O     3.312000000    -4.625000000     3.742000000
H     2.505000000    -4.958000000     3.349000000
H     3.120000000    -3.709000000     3.944000000
O     5.338000000    -1.586000000     5.683000000
H     5.651000000    -2.282000000     5.105000000
H     5.135000000    -0.859000000     5.094000000
O     5.139000000    -3.940000000     1.629000000
H     4.958000000    -4.724000000     1.111000000
H     4.544000000    -4.003000000     2.375000000
O     6.607000000    -3.129000000    -1.734000000
H     5.937000000    -3.682000000    -2.136000000
H     6.117000000    -2.530000000    -1.172000000
O     4.073000000     0.702000000     4.367000000
H     4.670000000     1.359000000     4.723000000
H     3.207000000     1.105000000     4.432000000
O    -5.707000000    -3.434000000     1.079000000
H    -5.256000000    -4.207000000     1.419000000
H    -5.039000000    -2.969000000     0.576000000
O    -7.004000000     0.936000000    -2.906000000
H    -6.594000000     0.152000000    -3.271000000
H    -6.418000000     1.651000000    -3.155000000
O    -1.317000000    -4.182000000     5.854000000
H    -0.881000000    -3.854000000     5.067000000
H    -1.899000000    -3.471000000     6.121000000
O    -5.116000000     5.086000000    -2.809000000
H    -5.118000000     4.941000000    -3.755000000
H    -4.271000000     4.745000000    -2.516000000
O    -0.407000000     0.431000000    -7.989000000
H    -1.096000000     0.165000000    -7.380000000
H    -0.114000000    -0.387000000    -8.391000000
O    -0.730000000     2.955000000     2.688000000
H    -1.411000000     3.489000000     3.098000000
H    -0.183000000     3.585000000     2.219000000
O    -4.132000000    -0.723000000     2.340000000
H    -3.718000000     0.139000000     2.305000000
H    -4.024000000    -1.077000000     1.457000000
O     1.404000000     1.379000000     6.645000000
H     1.472000000     1.435000000     5.692000000
H     1.785000000     0.528000000     6.863000000
O     2.536000000    -1.789000000     6.544000000
H     3.450000000    -1.536000000     6.674000000
H     2.310000000    -2.285000000     7.330000000
O     1.236000000    -5.677000000    -0.627000000
H     1.348000000    -4.729000000    -0.556000000
H     0.335000000    -5.790000000    -0.929000000
O     3.213000000     1.313000000    -3.366000000
H     3.571000000     2.201000000    -3.387000000
H     2.374000000     1.382000000    -3.822000000
O    -5.638000000    -1.463000000    -2.694000000
H    -6.448000000    -1.904000000    -2.438000000
H    -5.370000000    -1.904000000    -3.501000000
O    -2.401000000     2.300000000     5.034000000
H    -2.433000000     1.969000000     4.136000000
H    -2.640000000     3.223000000     4.958000000
O    -2.062000000    -4.805000000     0.186000000
H    -2.045000000    -5.692000000     0.547000000
H    -2.350000000    -4.255000000     0.914000000
O    -0.860000000     4.776000000    -6.509000000
H    -1.164000000     5.588000000    -6.104000000
H    -0.024000000     4.593000000    -6.080000000
O    -5.355000000     1.085000000    -0.679000000
H    -4.566000000     0.894000000    -1.186000000
H    -6.034000000     0.543000000    -1.080000000
O    -1.560000000    -0.252000000    -5.335000000
H    -1.686000000     0.330000000    -4.585000000
H    -0.703000000    -0.652000000    -5.187000000
O     4.493000000     2.236000000    -0.972000000
H     3.643000000     1.882000000    -1.236000000
H     5.111000000     1.524000000    -1.138000000
O     2.167000000    -3.705000000    -2.883000000
H     1.672000000    -3.546000000    -2.079000000
H     2.697000000    -2.916000000    -2.998000000
O     0.849000000     4.283000000     5.359000000
H     0.501000000     3.905000000     6.167000000
H     1.185000000     3.533000000     4.869000000
O     4.766000000    -1.817000000    -0.001000000
H     4.755000000    -0.990000000     0.481000000
H     4.933000000    -2.481000000     0.668000000
O    -3.043000000    -2.048000000     6.132000000
H    -2.538000000    -1.235000000     6.159000000
H    -3.676000000    -1.960000000     6.845000000
O    -0.554000000     4.877000000    -3.183000000
H    -0.055000000     4.200000000    -3.641000000
H    -1.049000000     5.318000000    -3.873000000
O    -6.978000000    -0.300000000     2.120000000
H    -7.160000000     0.618000000     1.918000000
H    -6.034000000    -0.328000000     2.276000000
O    -2.383000000    -2.552000000    -3.065000000
H    -2.757000000    -1.903000000    -3.661000000
H    -1.638000000    -2.915000000    -3.542000000
O    -4.141000000    -1.827000000    -5.325000000
H    -4.858000000    -1.224000000    -5.522000000
H    -3.360000000    -1.388000000    -5.662000000
O     0.866000000    -5.588000000     2.316000000
H     0.989000000    -5.834000000     1.400000000
H     0.420000000    -6.338000000     2.709000000
O    -1.602000000     0.416000000     6.732000000
H    -0.735000000     0.450000000     6.326000000
H    -2.040000000     1.211000000     6.428000000
O     5.500000000     0.290000000     1.418000000
H     6.379000000     0.645000000     1.548000000
H     4.964000000     0.730000000     2.078000000
O     1.655000000     4.762000000    -5.537000000
H     2.404000000     4.561000000    -6.098000000
H     1.643000000     4.056000000    -4.891000000
O     2.773000000    -1.978000000     3.668000000
H     2.802000000    -1.895000000     4.621000000
H     3.064000000    -1.125000000     3.345000000
O     3.479000000    -1.404000000    -2.783000000
H     3.459000000    -0.494000000    -3.079000000
H     3.952000000    -1.376000000    -1.951000000
O     1.664000000     2.074000000     3.824000000
H     2.351000000     2.509000000     3.319000000
H     0.902000000     2.080000000     3.246000000
O     0.343000000    -2.834000000    -1.071000000
H     0.340000000    -1.887000000    -0.929000000
H    -0.518000000    -3.124000000    -0.768000000
O    -2.644000000     2.871000000    -5.643000000
H    -2.021000000     2.476000000    -5.033000000
H    -2.112000000     3.459000000    -6.180000000
O    -4.691000000     1.932000000    -4.101000000
H    -4.155000000     1.782000000    -3.322000000
H    -4.124000000     2.432000000    -4.689000000
O    -2.765000000     4.228000000    -2.006000000
H    -2.729000000     3.272000000    -2.016000000
H    -1.861000000     4.503000000    -2.163000000
O    -3.965000000    -1.968000000    -0.526000000
H    -4.494000000    -1.539000000    -1.199000000
H    -3.159000000    -2.217000000    -0.978000000
O     0.022000000    -3.054000000     3.691000000
H     0.305000000    -3.751000000     3.099000000
H     0.714000000    -2.395000000     3.632000000
O     0.642000000     2.427000000    -4.539000000
H     0.013000000     2.013000000    -3.949000000
H     0.352000000     2.173000000    -5.415000000
O    -4.094000000     3.221000000     0.381000000
H    -4.660000000     2.598000000    -0.074000000
H    -3.616000000     3.665000000    -0.319000000
O    -2.249000000    -3.382000000     2.504000000
H    -1.309000000    -3.202000000     2.534000000
H    -2.573000000    -3.108000000     3.362000000
