158
-3000.41666
C     0.266000000    -0.210000000    -1.423000000
H     0.601000000    -0.630000000    -2.367000000
C     1.220000000    -0.041000000    -0.431000000
H     2.251000000    -0.145000000    -0.760000000
C     0.864000000     0.258000000     0.853000000
H     1.653000000     0.353000000     1.601000000
C    -0.475000000     0.375000000     1.115000000
H    -0.791000000     0.575000000     2.136000000
C    -1.510000000     0.208000000     0.154000000
H    -2.577000000     0.277000000     0.349000000
C    -1.088000000    -0.106000000    -1.143000000
C    -2.127000000    -0.501000000    -2.177000000
O    -3.154000000    -0.914000000    -1.701000000
O    -1.899000000    -0.531000000    -3.356000000
O    -4.904000000     0.485000000     1.516000000
H    -5.718000000     0.841000000     1.873000000
H    -4.246000000     0.680000000     2.183000000
O     3.839000000    -2.782000000    -1.804000000
H     4.788000000    -2.906000000    -1.838000000
H     3.723000000    -1.832000000    -1.774000000
O     4.090000000     0.470000000     2.937000000
H     4.830000000     0.179000000     3.471000000
H     4.392000000     1.282000000     2.530000000
O     0.550000000    -0.375000000     4.839000000
H     0.677000000     0.559000000     4.675000000
H     1.431000000    -0.711000000     5.007000000
O     1.306000000    -3.375000000    -2.475000000
H     2.215000000    -3.166000000    -2.262000000
H     1.281000000    -3.389000000    -3.432000000
O    -4.902000000    -1.295000000    -4.086000000
H    -4.256000000    -0.748000000    -3.639000000
H    -4.734000000    -1.153000000    -5.017000000
O    -1.065000000     5.020000000     2.731000000
H    -1.901000000     4.607000000     2.946000000
H    -0.517000000     4.302000000     2.414000000
O     0.513000000     3.316000000     1.469000000
H     0.343000000     2.653000000     0.799000000
H     1.348000000     3.707000000     1.212000000
O    -2.691000000     2.073000000    -3.613000000
H    -2.119000000     2.538000000    -3.003000000
H    -2.391000000     1.164000000    -3.577000000
O    -0.923000000     2.784000000    -7.727000000
H    -0.084000000     2.579000000    -8.137000000
H    -0.921000000     2.280000000    -6.913000000
O    -4.795000000     2.764000000    -5.409000000
H    -4.002000000     2.516000000    -4.935000000
H    -4.799000000     2.198000000    -6.181000000
O     0.112000000     4.357000000     5.113000000
H     0.550000000     3.508000000     5.054000000
H    -0.240000000     4.506000000     4.235000000
O    -2.118000000    -3.128000000     0.138000000
H    -2.677000000    -3.425000000     0.856000000
H    -2.542000000    -2.333000000    -0.184000000
O     3.424000000     0.874000000     6.752000000
H     3.797000000     0.784000000     7.629000000
H     4.166000000     0.739000000     6.162000000
O    -0.567000000     3.429000000    -1.826000000
H    -0.035000000     3.331000000    -2.616000000
H    -0.240000000     4.229000000    -1.415000000
O     5.561000000    -1.046000000     5.174000000
H     6.256000000    -1.388000000     4.612000000
H     6.002000000    -0.415000000     5.743000000
O     2.702000000     1.485000000    -5.375000000
H     3.387000000     2.153000000    -5.406000000
H     2.777000000     1.026000000    -6.211000000
O    -0.900000000    -4.203000000     3.094000000
H    -0.500000000    -3.555000000     2.514000000
H    -0.908000000    -3.783000000     3.953000000
O     4.969000000     0.020000000    -0.761000000
H     4.375000000     0.739000000    -0.545000000
H     5.844000000     0.399000000    -0.676000000
O    -3.480000000     1.190000000     3.825000000
H    -3.392000000     1.728000000     4.612000000
H    -3.196000000     0.318000000     4.098000000
O    -3.239000000    -1.739000000     3.738000000
H    -2.800000000    -2.155000000     4.481000000
H    -3.503000000    -2.469000000     3.178000000
O     4.607000000    -3.177000000     3.102000000
H     3.662000000    -3.026000000     3.118000000
H     4.900000000    -2.777000000     2.282000000
O     0.788000000     2.956000000    -4.141000000
H     0.993000000     3.765000000    -4.609000000
H     1.348000000     2.295000000    -4.548000000
O    -5.817000000     3.324000000    -2.900000000
H    -5.489000000     3.349000000    -3.798000000
H    -5.282000000     2.658000000    -2.468000000
O    -0.781000000     1.082000000    -5.562000000
H    -1.064000000     0.190000000    -5.359000000
H    -0.594000000     1.474000000    -4.709000000
O    -5.243000000    -2.235000000    -0.707000000
H    -4.562000000    -1.664000000    -1.064000000
H    -5.601000000    -1.746000000     0.034000000
O    -7.038000000     2.918000000    -0.006000000
H    -7.601000000     2.411000000    -0.592000000
H    -6.177000000     2.896000000    -0.424000000
O     1.561000000    -2.569000000    -5.190000000
H     0.712000000    -2.214000000    -5.456000000
H     1.928000000    -1.901000000    -4.611000000
O    -2.393000000     2.931000000     0.015000000
H    -1.809000000     3.200000000    -0.694000000
H    -2.863000000     2.175000000    -0.336000000
O    -6.994000000    -4.184000000    -1.351000000
H    -7.749000000    -3.597000000    -1.313000000
H    -6.246000000    -3.627000000    -1.138000000
O    -3.398000000     3.541000000     2.533000000
H    -3.531000000     2.682000000     2.932000000
H    -3.097000000     3.349000000     1.644000000
O    -0.058000000    -3.654000000    -7.108000000
H     0.765000000    -3.469000000    -6.656000000
H    -0.721000000    -3.629000000    -6.419000000
O    -7.577000000    -1.489000000    -3.040000000
H    -7.731000000    -1.906000000    -2.192000000
H    -6.636000000    -1.586000000    -3.187000000
O     6.144000000    -2.181000000     0.933000000
H     6.488000000    -2.532000000     0.112000000
H     5.592000000    -1.446000000     0.666000000
O     3.129000000    -0.771000000    -3.771000000
H     2.915000000     0.008000000    -4.285000000
H     4.072000000    -0.884000000    -3.890000000
O    -5.094000000    -5.592000000    -2.577000000
H    -4.307000000    -5.110000000    -2.322000000
H    -5.818000000    -5.067000000    -2.235000000
O     1.375000000     2.017000000     3.652000000
H     1.140000000     2.351000000     2.786000000
H     2.094000000     1.408000000     3.487000000
O     0.680000000    -3.370000000     0.271000000
H    -0.266000000    -3.261000000     0.176000000
H     1.042000000    -3.053000000    -0.556000000
O    -1.166000000    -2.698000000    -4.656000000
H    -1.346000000    -1.969000000    -4.062000000
H    -1.699000000    -3.418000000    -4.320000000
O    -2.244000000    -4.950000000    -2.171000000
H    -2.114000000    -5.824000000    -1.804000000
H    -2.067000000    -4.356000000    -1.441000000
O    -0.824000000    -2.688000000     5.210000000
H    -0.460000000    -1.961000000     4.704000000
H    -0.836000000    -2.369000000     6.112000000
O     3.974000000     2.777000000    -1.061000000
H     4.830000000     3.094000000    -0.772000000
H     3.901000000     3.076000000    -1.968000000
O     1.648000000    -4.504000000     5.932000000
H     2.219000000    -3.759000000     5.744000000
H     0.766000000    -4.133000000     5.942000000
O    -4.701000000     1.376000000    -1.207000000
H    -4.229000000     0.636000000    -1.588000000
H    -4.707000000     1.198000000    -0.266000000
O     2.754000000     4.468000000     0.583000000
H     3.437000000     4.761000000     1.187000000
H     3.190000000     3.824000000     0.024000000
O     2.905000000    -2.027000000     5.512000000
H     3.583000000    -2.147000000     4.847000000
H     3.390000000    -1.879000000     6.324000000
O     1.785000000    -2.728000000     2.661000000
H     1.283000000    -2.894000000     1.863000000
H     1.730000000    -1.780000000     2.785000000
O     5.095000000     3.150000000     2.397000000
H     5.610000000     3.435000000     1.643000000
H     4.704000000     3.955000000     2.738000000
