158
-3028.68201
C     0.183000000    -0.486000000     1.379000000
H     0.561000000    -0.884000000     2.317000000
C     0.130000000    -1.288000000     0.259000000
H     0.382000000    -2.345000000     0.231000000
C     0.012000000    -0.710000000    -1.000000000
H     0.159000000    -1.353000000    -1.873000000
C    -0.226000000     0.676000000    -1.126000000
H    -0.220000000     1.105000000    -2.125000000
C    -0.217000000     1.519000000     0.023000000
H    -0.348000000     2.591000000    -0.099000000
C    -0.089000000     0.923000000     1.280000000
C    -0.119000000     1.770000000     2.538000000
O    -0.493000000     2.963000000     2.452000000
O     0.094000000     1.312000000     3.662000000
O     3.317000000    -4.251000000     4.358000000
H     3.112000000    -5.061000000     3.893000000
H     3.431000000    -3.599000000     3.667000000
O     3.377000000    -2.106000000     2.554000000
H     3.540000000    -1.899000000     1.634000000
H     2.892000000    -1.351000000     2.887000000
O    -0.625000000    -6.192000000     3.019000000
H    -1.020000000    -5.427000000     2.600000000
H     0.226000000    -6.286000000     2.590000000
O     3.372000000    -5.554000000    -0.468000000
H     2.480000000    -5.616000000    -0.125000000
H     3.899000000    -6.071000000     0.141000000
O    -3.358000000     1.761000000     0.141000000
H    -2.989000000     2.332000000     0.815000000
H    -2.933000000     2.041000000    -0.669000000
O     2.844000000     2.585000000     8.035000000
H     2.510000000     1.987000000     7.367000000
H     3.170000000     3.338000000     7.542000000
O    -2.523000000     7.021000000    -0.322000000
H    -1.631000000     6.782000000    -0.571000000
H    -3.031000000     6.220000000    -0.455000000
O    -4.611000000     5.318000000     0.219000000
H    -5.488000000     5.328000000     0.604000000
H    -4.098000000     4.764000000     0.807000000
O     3.392000000    -2.973000000    -6.191000000
H     3.139000000    -3.881000000    -6.356000000
H     4.253000000    -3.036000000    -5.776000000
O     1.350000000     3.665000000     4.485000000
H     0.934000000     3.743000000     3.627000000
H     0.932000000     2.902000000     4.886000000
O     1.007000000    -1.807000000    -7.603000000
H     1.791000000    -1.690000000    -7.066000000
H     0.338000000    -2.106000000    -6.986000000
O     3.157000000     4.688000000     6.314000000
H     3.458000000     5.500000000     5.905000000
H     2.501000000     4.344000000     5.708000000
O     1.148000000     1.111000000     6.176000000
H     0.789000000     0.925000000     5.308000000
H     0.405000000     1.005000000     6.770000000
O    -0.761000000    -2.937000000    -5.336000000
H    -1.687000000    -2.698000000    -5.300000000
H    -0.741000000    -3.741000000    -5.855000000
O    -3.217000000     0.813000000    -4.517000000
H    -3.069000000     0.742000000    -5.460000000
H    -2.510000000     0.301000000    -4.124000000
O     3.772000000     3.440000000     0.243000000
H     3.170000000     4.029000000     0.697000000
H     3.581000000     2.575000000     0.608000000
O    -2.743000000     2.557000000    -2.385000000
H    -3.061000000     2.013000000    -3.105000000
H    -2.196000000     3.219000000    -2.808000000
O    -3.002000000    -1.075000000     0.155000000
H    -3.189000000    -0.138000000     0.095000000
H    -2.116000000    -1.120000000     0.516000000
O    -4.223000000    -5.048000000    -0.797000000
H    -3.506000000    -5.012000000    -1.430000000
H    -3.899000000    -4.559000000    -0.040000000
O     1.600000000     4.474000000     1.245000000
H     1.237000000     4.928000000     0.484000000
H     0.851000000     4.024000000     1.636000000
O     3.605000000     1.563000000     2.453000000
H     3.561000000     0.898000000     1.766000000
H     3.279000000     1.120000000     3.236000000
O    -0.377000000     3.739000000    -3.227000000
H    -0.237000000     4.492000000    -3.802000000
H     0.346000000     3.146000000    -3.429000000
O    -3.094000000    -0.280000000     6.298000000
H    -2.514000000     0.164000000     6.916000000
H    -3.717000000     0.394000000     6.026000000
O    -1.569000000    -3.614000000     3.226000000
H    -0.733000000    -3.208000000     3.453000000
H    -2.130000000    -3.449000000     3.984000000
O     0.921000000    -5.890000000     0.323000000
H     0.640000000    -5.756000000    -0.582000000
H     0.615000000    -6.770000000     0.541000000
O     2.662000000    -0.453000000    -2.818000000
H     1.932000000     0.097000000    -2.532000000
H     2.895000000    -0.112000000    -3.681000000
O    -1.007000000     5.607000000     3.555000000
H    -0.715000000     4.734000000     3.292000000
H    -1.900000000     5.672000000     3.216000000
O     3.930000000    -2.895000000    -0.110000000
H     4.453000000    -3.084000000     0.669000000
H     3.605000000    -3.749000000    -0.393000000
O     5.059000000    -1.093000000    -2.084000000
H     4.393000000    -0.792000000    -2.702000000
H     4.651000000    -1.832000000    -1.633000000
O     4.500000000     0.269000000    -5.076000000
H     5.422000000     0.526000000    -5.097000000
H     4.292000000     0.050000000    -5.985000000
O     2.954000000     0.037000000     0.270000000
H     3.306000000    -0.604000000    -0.348000000
H     2.007000000     0.007000000     0.132000000
O    -0.340000000     5.489000000    -0.944000000
H    -0.260000000     4.779000000    -1.581000000
H     0.155000000     6.213000000    -1.328000000
O     2.062000000    -2.447000000     6.141000000
H     1.290000000    -2.348000000     5.584000000
H     2.696000000    -2.907000000     5.592000000
O    -0.497000000    -1.143000000     4.740000000
H    -1.070000000    -1.176000000     5.506000000
H    -0.690000000    -0.298000000     4.333000000
O     0.145000000    -5.368000000    -2.175000000
H     0.408000000    -5.951000000    -2.887000000
H     0.688000000    -4.589000000    -2.290000000
O    -3.455000000    -2.345000000    -5.597000000
H    -4.227000000    -2.209000000    -6.147000000
H    -3.810000000    -2.558000000    -4.734000000
O    -2.952000000     3.934000000     1.843000000
H    -2.072000000     3.557000000     1.860000000
H    -3.446000000     3.418000000     2.480000000
O     1.848000000     2.306000000    -3.738000000
H     2.563000000     2.659000000    -3.208000000
H     2.278000000     1.956000000    -4.518000000
O    -3.557000000    -3.672000000     1.483000000
H    -4.046000000    -2.853000000     1.560000000
H    -2.905000000    -3.628000000     2.182000000
O    -2.502000000    -4.873000000    -2.796000000
H    -2.382000000    -5.195000000    -3.690000000
H    -1.675000000    -5.072000000    -2.356000000
O    -3.630000000     4.521000000     6.509000000
H    -3.145000000     5.332000000     6.658000000
H    -2.988000000     3.925000000     6.122000000
O     3.038000000    -0.036000000     4.612000000
H     3.713000000    -0.579000000     5.018000000
H     2.547000000     0.328000000     5.349000000
O    -5.587000000    -0.053000000    -3.097000000
H    -4.722000000     0.172000000    -3.437000000
H    -6.199000000     0.362000000    -3.704000000
O     1.830000000     7.143000000     2.944000000
H     1.227000000     6.502000000     2.567000000
H     1.513000000     7.988000000     2.623000000
O     1.883000000    -3.225000000    -2.619000000
H     1.876000000    -2.818000000    -3.485000000
H     2.397000000    -2.627000000    -2.077000000
O    -4.224000000     1.813000000     3.251000000
H    -4.697000000     1.144000000     2.757000000
H    -4.834000000     2.080000000     3.938000000
O    -2.263000000     2.220000000     5.109000000
H    -1.327000000     2.088000000     4.958000000
H    -2.690000000     1.586000000     4.533000000
O    -3.189000000    -2.234000000    -2.557000000
H    -2.621000000    -1.913000000    -1.856000000
H    -2.854000000    -3.109000000    -2.755000000
