158
-3020.77178
C    -0.153000000    -0.049000000    -1.500000000
H    -0.165000000    -0.057000000    -2.587000000
C     1.057000000    -0.313000000    -0.802000000
H     1.988000000    -0.573000000    -1.299000000
C     1.044000000    -0.271000000     0.664000000
H     1.997000000    -0.416000000     1.114000000
C    -0.135000000     0.155000000     1.313000000
H    -0.263000000     0.377000000     2.370000000
C    -1.175000000     0.487000000     0.548000000
H    -2.052000000     0.900000000     1.038000000
C    -1.350000000     0.219000000    -0.797000000
C    -2.633000000     0.327000000    -1.587000000
O    -3.678000000     0.364000000    -1.037000000
O    -2.580000000     0.688000000    -2.731000000
O    -2.201000000     3.733000000    -0.285000000
H    -2.438000000     3.808000000     0.640000000
H    -1.261000000     3.550000000    -0.277000000
O    -5.172000000     2.218000000     1.603000000
H    -4.449000000     1.645000000     1.859000000
H    -5.450000000     2.633000000     2.419000000
O    -6.398000000    -0.817000000    -6.005000000
H    -5.949000000    -0.634000000    -6.830000000
H    -5.736000000    -0.661000000    -5.331000000
O     3.992000000    -1.473000000    -4.743000000
H     3.636000000    -2.179000000    -5.283000000
H     3.531000000    -0.688000000    -5.041000000
O     1.420000000     2.193000000    -3.489000000
H     0.894000000     2.989000000    -3.569000000
H     2.163000000     2.451000000    -2.944000000
O    -2.199000000     1.701000000    -7.270000000
H    -2.098000000     1.556000000    -6.330000000
H    -2.786000000     1.003000000    -7.559000000
O    -1.164000000    -2.859000000     0.823000000
H    -1.386000000    -2.486000000     1.676000000
H    -0.755000000    -2.138000000     0.345000000
O    -2.518000000     3.300000000    -3.026000000
H    -2.366000000     3.643000000    -2.145000000
H    -2.553000000     2.350000000    -2.910000000
O    -1.487000000    -0.709000000     4.470000000
H    -0.735000000    -0.429000000     4.992000000
H    -1.440000000    -1.665000000     4.475000000
O    -7.381000000     2.552000000    -3.237000000
H    -6.658000000     2.585000000    -3.864000000
H    -6.955000000     2.540000000    -2.380000000
O     0.344000000     4.727000000    -3.942000000
H     0.268000000     5.640000000    -4.219000000
H    -0.441000000     4.570000000    -3.416000000
O    -4.175000000     4.293000000    -4.965000000
H    -4.771000000     3.584000000    -5.206000000
H    -3.639000000     3.926000000    -4.262000000
O     7.444000000    -2.916000000     2.108000000
H     6.609000000    -2.791000000     1.657000000
H     8.007000000    -3.334000000     1.457000000
O     3.691000000    -5.118000000     0.224000000
H     3.833000000    -4.181000000     0.356000000
H     4.441000000    -5.403000000    -0.297000000
O     4.662000000    -2.443000000    -1.983000000
H     3.986000000    -2.444000000    -2.662000000
H     5.465000000    -2.202000000    -2.445000000
O     1.394000000    -2.437000000     5.289000000
H     2.138000000    -2.577000000     5.874000000
H     1.276000000    -1.487000000     5.273000000
O    -0.318000000    -0.468000000    -6.720000000
H    -0.532000000     0.276000000    -6.158000000
H     0.323000000    -0.123000000    -7.341000000
O     7.375000000     1.036000000     1.761000000
H     6.497000000     1.176000000     1.406000000
H     7.804000000     1.888000000     1.682000000
O     3.957000000    -2.012000000     3.425000000
H     4.199000000    -2.876000000     3.760000000
H     4.003000000    -2.103000000     2.473000000
O    -1.913000000     1.384000000     6.888000000
H    -1.109000000     0.905000000     6.688000000
H    -2.167000000     1.073000000     7.758000000
O    -0.024000000     4.189000000     3.577000000
H     0.444000000     3.420000000     3.903000000
H    -0.895000000     3.861000000     3.352000000
O    -3.731000000     5.852000000    -1.148000000
H    -2.998000000     6.078000000    -1.720000000
H    -3.515000000     4.982000000    -0.813000000
O    -1.065000000     1.350000000    -4.930000000
H    -1.706000000     1.187000000    -4.238000000
H    -0.221000000     1.362000000    -4.477000000
O    -8.188000000    -2.432000000    -2.296000000
H    -7.527000000    -1.757000000    -2.140000000
H    -8.959000000    -1.949000000    -2.590000000
O    -5.754000000    -1.118000000    -1.641000000
H    -5.158000000    -0.441000000    -1.321000000
H    -5.382000000    -1.938000000    -1.315000000
O    -0.760000000    -3.717000000     4.413000000
H    -0.779000000    -4.673000000     4.368000000
H     0.166000000    -3.501000000     4.523000000
O    -3.585000000     0.645000000     3.318000000
H    -4.353000000     0.243000000     3.723000000
H    -2.853000000     0.380000000     3.876000000
O     3.349000000     1.215000000    -5.405000000
H     2.457000000     1.288000000    -5.066000000
H     3.239000000     0.930000000    -6.312000000
O     3.480000000     2.971000000    -1.655000000
H     3.943000000     3.663000000    -2.127000000
H     4.021000000     2.191000000    -1.781000000
O    -5.204000000    -3.276000000    -0.070000000
H    -4.635000000    -4.002000000     0.188000000
H    -4.828000000    -2.511000000     0.365000000
O     2.535000000    -4.107000000    -3.242000000
H     1.884000000    -3.681000000    -3.800000000
H     2.020000000    -4.648000000    -2.643000000
O     0.721000000    -2.330000000    -4.567000000
H     0.575000000    -2.107000000    -5.486000000
H    -0.148000000    -2.553000000    -4.234000000
O    -3.980000000    -1.176000000     1.145000000
H    -3.985000000    -0.700000000     1.976000000
H    -3.684000000    -0.531000000     0.503000000
O    -5.768000000     2.230000000    -5.491000000
H    -6.470000000     2.419000000    -6.114000000
H    -5.746000000     1.275000000    -5.437000000
O    -4.751000000    -0.287000000    -4.132000000
H    -5.261000000    -0.682000000    -3.425000000
H    -3.982000000     0.080000000    -3.697000000
O     0.661000000     0.193000000     6.163000000
H     1.278000000     0.070000000     6.885000000
H     1.101000000     0.805000000     5.573000000
O     4.268000000     0.350000000     1.112000000
H     3.914000000     0.350000000     2.001000000
H     4.551000000     1.252000000     0.967000000
O     4.208000000     0.624000000     4.329000000
H     5.124000000     0.729000000     4.586000000
H     4.139000000    -0.291000000     4.057000000
O    -0.863000000    -3.700000000    -1.927000000
H     0.015000000    -4.066000000    -2.027000000
H    -0.834000000    -3.230000000    -1.094000000
O     1.980000000     2.303000000     4.593000000
H     2.421000000     3.048000000     5.002000000
H     2.680000000     1.672000000     4.426000000
O    -5.762000000     2.260000000    -1.131000000
H    -5.052000000     1.635000000    -1.281000000
H    -5.575000000     2.633000000    -0.270000000
O     5.260000000     3.225000000     0.820000000
H     4.649000000     3.304000000     0.087000000
H     5.867000000     3.956000000     0.706000000
O     1.069000000     5.622000000     0.123000000
H     1.042000000     6.027000000     0.990000000
H     1.110000000     4.682000000     0.300000000
O     4.516000000    -2.416000000     0.742000000
H     4.255000000    -1.496000000     0.784000000
H     4.669000000    -2.579000000    -0.188000000
O     4.837000000     1.272000000    -2.856000000
H     5.382000000     0.486000000    -2.810000000
H     4.463000000     1.253000000    -3.737000000
O     0.893000000     2.812000000    -0.497000000
H     0.944000000     1.864000000    -0.381000000
H     1.716000000     3.045000000    -0.928000000
O    -7.752000000     0.389000000    -0.142000000
H    -7.297000000     0.005000000    -0.891000000
H    -7.493000000     1.310000000    -0.150000000
O    -2.207000000     3.074000000     2.667000000
H    -2.578000000     2.199000000     2.550000000
H    -2.818000000     3.516000000     3.256000000
