158
-3030.68242
C    -0.511000000    -0.446000000    -1.363000000
H    -0.818000000    -0.879000000    -2.311000000
C     0.866000000    -0.426000000    -1.009000000
H     1.567000000    -0.931000000    -1.669000000
C     1.235000000     0.086000000     0.250000000
H     2.277000000     0.042000000     0.457000000
C     0.234000000     0.592000000     1.065000000
H     0.517000000     1.075000000     1.996000000
C    -1.169000000     0.631000000     0.704000000
H    -1.873000000     1.079000000     1.400000000
C    -1.512000000     0.033000000    -0.468000000
C    -2.973000000    -0.054000000    -0.708000000
O    -3.845000000     0.337000000     0.052000000
O    -3.340000000    -0.624000000    -1.713000000
O    -0.803000000     4.745000000     1.610000000
H    -0.935000000     4.750000000     2.558000000
H     0.106000000     5.023000000     1.493000000
O    -3.283000000    -3.018000000    -2.880000000
H    -3.631000000    -3.668000000    -2.270000000
H    -3.369000000    -2.185000000    -2.417000000
O     4.536000000    -1.196000000    -3.114000000
H     4.175000000    -1.675000000    -3.861000000
H     4.339000000    -0.278000000    -3.300000000
O    -6.490000000     1.529000000     0.927000000
H    -6.519000000     0.789000000     0.320000000
H    -5.560000000     1.749000000     0.992000000
O    -1.711000000     3.270000000    -0.622000000
H    -1.355000000     3.667000000     0.173000000
H    -1.508000000     2.339000000    -0.536000000
O    -4.277000000     1.798000000    -6.137000000
H    -4.032000000     1.396000000    -6.970000000
H    -3.530000000     1.631000000    -5.562000000
O    -1.027000000     3.149000000    -3.471000000
H    -0.916000000     3.522000000    -2.596000000
H    -1.589000000     2.387000000    -3.337000000
O     6.702000000    -2.131000000     1.939000000
H     6.659000000    -1.862000000     1.022000000
H     6.013000000    -1.626000000     2.370000000
O    -7.432000000     3.982000000    -0.130000000
H    -7.543000000     3.128000000     0.288000000
H    -6.487000000     4.061000000    -0.265000000
O     3.435000000     5.615000000     0.387000000
H     2.864000000     5.594000000     1.156000000
H     3.135000000     6.374000000    -0.113000000
O     2.850000000    -4.467000000     4.207000000
H     2.744000000    -3.816000000     3.513000000
H     2.585000000    -5.293000000     3.802000000
O     4.008000000     1.428000000    -3.065000000
H     3.222000000     1.912000000    -3.317000000
H     4.140000000     1.649000000    -2.143000000
O     3.166000000    -2.657000000     2.193000000
H     3.479000000    -1.787000000     2.439000000
H     3.129000000    -2.637000000     1.237000000
O     4.626000000    -2.265000000    -0.575000000
H     4.433000000    -3.202000000    -0.597000000
H     4.648000000    -2.003000000    -1.495000000
O    -4.666000000     4.150000000    -0.421000000
H    -4.901000000     4.531000000    -1.267000000
H    -3.725000000     3.988000000    -0.485000000
O     5.460000000    -4.698000000     2.282000000
H     6.088000000    -3.995000000     2.112000000
H     4.605000000    -4.269000000     2.251000000
O     0.466000000     0.448000000    -4.501000000
H     0.403000000     0.159000000    -5.411000000
H     0.895000000    -0.278000000    -4.048000000
O    -2.664000000     0.852000000    -4.097000000
H    -3.005000000     0.673000000    -3.221000000
H    -2.142000000     0.080000000    -4.313000000
O    -7.778000000    -2.096000000    -1.281000000
H    -6.858000000    -2.037000000    -1.024000000
H    -7.965000000    -1.252000000    -1.694000000
O    -3.993000000    -5.101000000    -0.781000000
H    -4.556000000    -5.846000000    -0.572000000
H    -3.197000000    -5.252000000    -0.272000000
O    -4.075000000     5.238000000     3.501000000
H    -3.584000000     5.598000000     2.762000000
H    -4.407000000     4.399000000     3.181000000
O     3.611000000     2.813000000    -0.391000000
H     3.590000000     3.652000000     0.068000000
H     4.201000000     2.269000000     0.130000000
O     5.606000000     4.852000000     2.272000000
H     4.805000000     5.144000000     1.837000000
H     6.226000000     4.703000000     1.558000000
O     3.858000000    -3.186000000    -4.959000000
H     3.020000000    -3.045000000    -4.518000000
H     4.249000000    -3.928000000    -4.498000000
O     0.935000000    -2.686000000    -4.879000000
H    -0.019000000    -2.611000000    -4.895000000
H     1.104000000    -3.622000000    -4.989000000
O    -4.192000000    -2.540000000     3.911000000
H    -4.252000000    -3.370000000     3.439000000
H    -3.359000000    -2.590000000     4.380000000
O     2.012000000    -3.872000000    -2.228000000
H     1.505000000    -3.059000000    -2.215000000
H     1.352000000    -4.565000000    -2.255000000
O    -0.851000000    -4.516000000    -2.138000000
H    -1.114000000    -5.246000000    -2.698000000
H    -1.582000000    -3.900000000    -2.187000000
O    -8.559000000     1.925000000     2.531000000
H    -7.754000000     1.837000000     2.020000000
H    -8.409000000     1.387000000     3.308000000
O    -4.878000000    -0.178000000     2.645000000
H    -4.577000000    -1.016000000     2.996000000
H    -4.759000000    -0.259000000     1.698000000
O     1.255000000     3.877000000    -1.270000000
H     0.550000000     3.259000000    -1.076000000
H     2.050000000     3.431000000    -0.978000000
O    -7.176000000     2.512000000    -3.703000000
H    -7.103000000     1.953000000    -4.476000000
H    -6.441000000     2.249000000    -3.148000000
O    -5.411000000     1.503000000    -2.098000000
H    -4.955000000     0.661000000    -2.101000000
H    -5.099000000     1.941000000    -1.306000000
O    -1.629000000    -5.023000000     0.505000000
H    -1.341000000    -4.336000000     1.105000000
H    -0.924000000    -5.090000000    -0.139000000
O     3.939000000     0.466000000     5.432000000
H     4.547000000     0.390000000     6.167000000
H     4.118000000     1.330000000     5.061000000
O    -5.062000000    -4.707000000    -4.581000000
H    -4.411000000    -4.067000000    -4.871000000
H    -5.365000000    -5.122000000    -5.388000000
O    -1.751000000    -1.877000000    -4.857000000
H    -2.279000000    -2.106000000    -5.622000000
H    -2.234000000    -2.241000000    -4.115000000
O    -0.885000000    -2.962000000     2.271000000
H    -0.768000000    -2.113000000     1.844000000
H    -1.020000000    -2.749000000     3.194000000
O     0.993000000    -0.625000000    -6.992000000
H     0.428000000    -0.871000000    -7.724000000
H     0.936000000    -1.365000000    -6.387000000
O    -4.605000000     2.554000000     2.889000000
H    -4.895000000     1.680000000     3.148000000
H    -3.651000000     2.486000000     2.840000000
O    -5.598000000    -4.042000000     1.907000000
H    -5.709000000    -3.440000000     1.172000000
H    -6.479000000    -4.143000000     2.269000000
O     6.636000000     1.274000000    -1.246000000
H     6.289000000     0.746000000    -1.965000000
H     7.345000000     0.745000000    -0.881000000
O     1.809000000     5.878000000     2.513000000
H     1.214000000     6.521000000     2.900000000
H     1.993000000     5.264000000     3.224000000
O     4.495000000    -0.449000000     2.588000000
H     4.654000000     0.447000000     2.293000000
H     4.136000000    -0.352000000     3.470000000
O     5.602000000     1.758000000     1.417000000
H     6.010000000     2.555000000     1.756000000
H     6.264000000     1.377000000     0.839000000
O     2.542000000     4.122000000     4.384000000
H     1.956000000     3.844000000     5.088000000
H     3.351000000     3.635000000     4.540000000
O    -5.201000000    -2.538000000    -0.203000000
H    -4.617000000    -3.293000000    -0.280000000
H    -4.664000000    -1.792000000    -0.468000000
O     1.878000000     2.571000000    -3.961000000
H     1.172000000     2.021000000    -4.300000000
H     1.429000000     3.292000000    -3.519000000
