158
-3060.11184
C    -0.680000000    -1.070000000    -0.863000000
H    -1.094000000    -1.823000000    -1.529000000
C     0.735000000    -0.875000000    -0.784000000
H     1.401000000    -1.347000000    -1.502000000
C     1.215000000     0.202000000     0.038000000
H     2.304000000     0.266000000     0.001000000
C     0.359000000     0.942000000     0.842000000
H     0.832000000     1.722000000     1.433000000
C    -1.007000000     0.664000000     0.789000000
H    -1.651000000     1.218000000     1.466000000
C    -1.514000000    -0.373000000    -0.022000000
C    -3.006000000    -0.687000000     0.091000000
O    -3.678000000    -0.062000000     0.862000000
O    -3.635000000    -1.493000000    -0.584000000
O     5.710000000     3.877000000    -0.899000000
H     5.852000000     2.958000000    -0.671000000
H     6.506000000     4.322000000    -0.609000000
O    -2.540000000     4.694000000     1.267000000
H    -2.077000000     4.480000000     2.076000000
H    -2.422000000     5.639000000     1.166000000
O    -3.480000000    -2.705000000    -2.912000000
H    -4.292000000    -2.982000000    -3.338000000
H    -3.765000000    -2.304000000    -2.091000000
O     3.407000000    -0.007000000    -2.791000000
H     2.928000000    -0.554000000    -3.414000000
H     2.779000000     0.668000000    -2.532000000
O    -6.367000000    -0.514000000     1.532000000
H    -6.255000000    -1.367000000     1.950000000
H    -5.499000000    -0.300000000     1.189000000
O    -3.977000000     2.563000000     0.298000000
H    -3.403000000     3.199000000     0.726000000
H    -3.829000000     1.747000000     0.777000000
O     8.359000000     2.176000000    -0.202000000
H     7.525000000     1.714000000    -0.286000000
H     8.659000000     2.295000000    -1.104000000
O    -2.336000000     2.904000000    -2.009000000
H    -1.922000000     3.683000000    -1.638000000
H    -2.937000000     2.604000000    -1.328000000
O     4.954000000    -2.737000000     1.768000000
H     4.438000000    -3.099000000     1.047000000
H     4.562000000    -3.114000000     2.555000000
O     1.240000000     6.310000000     0.459000000
H     1.793000000     5.937000000     1.145000000
H     1.859000000     6.643000000    -0.191000000
O     3.907000000     6.164000000    -0.662000000
H     4.124000000     7.051000000    -0.949000000
H     4.420000000     5.594000000    -1.235000000
O     6.100000000    -0.807000000    -2.967000000
H     6.194000000    -1.426000000    -3.691000000
H     5.271000000    -0.361000000    -3.140000000
O     1.025000000     5.879000000    -2.653000000
H     1.630000000     5.653000000    -3.360000000
H     1.149000000     5.188000000    -2.002000000
O     1.958000000     2.330000000    -1.803000000
H     1.184000000     1.863000000    -2.118000000
H     1.806000000     2.440000000    -0.865000000
O     0.657000000    -2.161000000     2.191000000
H     0.529000000    -1.276000000     1.850000000
H     1.136000000    -2.618000000     1.500000000
O     2.581000000    -4.226000000     0.199000000
H     2.836000000    -3.793000000    -0.616000000
H     2.329000000    -5.110000000    -0.069000000
O    -5.479000000     4.283000000     2.397000000
H    -5.220000000     5.095000000     1.961000000
H    -5.203000000     3.590000000     1.797000000
O    -1.753000000    -0.675000000    -3.843000000
H    -2.404000000    -1.213000000    -3.391000000
H    -1.198000000    -1.306000000    -4.302000000
O     3.414000000    -2.941000000    -6.221000000
H     3.162000000    -2.670000000    -5.339000000
H     4.067000000    -3.628000000    -6.083000000
O    -8.026000000    -2.402000000    -3.219000000
H    -7.567000000    -1.804000000    -2.629000000
H    -8.132000000    -1.904000000    -4.030000000
O     6.706000000    -0.752000000     2.175000000
H     7.459000000    -0.888000000     1.599000000
H     6.073000000    -1.415000000     1.901000000
O    -1.694000000     3.288000000     3.425000000
H    -1.584000000     2.394000000     3.750000000
H    -2.461000000     3.619000000     3.894000000
O    -5.633000000     0.556000000    -3.433000000
H    -5.646000000    -0.142000000    -2.778000000
H    -6.545000000     0.635000000    -3.716000000
O     3.866000000     2.389000000     0.654000000
H     3.995000000     3.332000000     0.754000000
H     3.587000000     2.093000000     1.521000000
O     3.813000000    -4.443000000    -2.246000000
H     3.604000000    -5.367000000    -2.377000000
H     4.769000000    -4.405000000    -2.286000000
O     2.379000000    -2.689000000    -3.704000000
H     1.594000000    -3.234000000    -3.743000000
H     2.994000000    -3.192000000    -3.170000000
O     0.143000000    -3.980000000    -5.040000000
H    -0.712000000    -4.009000000    -5.469000000
H     0.166000000    -4.768000000    -4.497000000
O    -3.939000000    -3.182000000     3.263000000
H    -4.067000000    -3.393000000     2.338000000
H    -3.000000000    -3.297000000     3.407000000
O    -0.057000000    -5.282000000    -2.004000000
H     0.597000000    -5.358000000    -1.310000000
H    -0.895000000    -5.255000000    -1.541000000
O    -2.402000000    -4.969000000    -0.606000000
H    -2.915000000    -5.206000000    -1.378000000
H    -2.899000000    -4.261000000    -0.195000000
O    -3.896000000    -0.571000000     3.617000000
H    -4.169000000    -1.487000000     3.666000000
H    -4.076000000    -0.316000000     2.712000000
O    -0.524000000     4.564000000    -0.464000000
H    -1.257000000     4.629000000     0.148000000
H     0.166000000     5.098000000    -0.069000000
O    -8.398000000     1.352000000     0.454000000
H    -7.931000000     2.015000000    -0.054000000
H    -7.795000000     0.610000000     0.493000000
O    -6.232000000    -0.899000000    -1.281000000
H    -5.333000000    -1.022000000    -0.975000000
H    -6.774000000    -1.080000000    -0.513000000
O    -2.515000000    -3.484000000    -5.505000000
H    -3.056000000    -3.379000000    -6.288000000
H    -3.028000000    -3.083000000    -4.804000000
O    -1.236000000    -3.521000000     3.561000000
H    -0.721000000    -2.949000000     2.993000000
H    -0.776000000    -3.503000000     4.401000000
O     0.365000000    -1.601000000    -6.329000000
H     0.443000000    -2.071000000    -7.159000000
H     0.316000000    -2.290000000    -5.667000000
O     2.340000000     4.842000000    -4.838000000
H     2.971000000     4.320000000    -4.343000000
H     2.847000000     5.585000000    -5.165000000
O    -1.794000000     0.693000000     4.565000000
H    -2.564000000     0.222000000     4.246000000
H    -1.673000000     0.375000000     5.460000000
O    -6.106000000     2.814000000    -1.812000000
H    -5.866000000     1.921000000    -2.061000000
H    -5.325000000     3.160000000    -1.380000000
O     3.918000000     3.673000000    -3.084000000
H     4.592000000     3.637000000    -2.406000000
H     3.158000000     3.245000000    -2.690000000
O     6.033000000     0.936000000    -0.850000000
H     5.167000000     0.927000000    -0.442000000
H     5.961000000     0.318000000    -1.578000000
O     4.181000000     1.962000000     5.167000000
H     4.318000000     2.887000000     4.962000000
H     5.000000000     1.537000000     4.911000000
O     0.811000000    -0.271000000     4.393000000
H     0.444000000    -1.118000000     4.646000000
H     0.053000000     0.247000000     4.122000000
O    -3.034000000     1.525000000    -4.832000000
H    -3.471000000     1.957000000    -4.098000000
H    -2.447000000     0.890000000    -4.421000000
O     3.055000000     0.903000000     3.031000000
H     3.035000000     1.349000000     3.877000000
H     2.427000000     0.186000000     3.123000000
O    -4.459000000    -3.682000000     0.583000000
H    -5.222000000    -4.089000000     0.172000000
H    -4.298000000    -2.895000000     0.063000000
O    -0.283000000     1.425000000    -2.972000000
H    -0.780000000     0.667000000    -3.280000000
H    -0.949000000     2.039000000    -2.664000000
