158
-3062.93374
C    -0.261000000    -1.347000000    -0.705000000
H    -0.456000000    -2.286000000    -1.215000000
C     0.416000000    -0.274000000    -1.265000000
H     0.766000000    -0.297000000    -2.294000000
C     0.688000000     0.883000000    -0.485000000
H     1.308000000     1.689000000    -0.939000000
C     0.101000000     1.037000000     0.736000000
H     0.289000000     1.884000000     1.391000000
C    -0.690000000     0.041000000     1.245000000
H    -1.142000000     0.168000000     2.225000000
C    -0.829000000    -1.163000000     0.575000000
C    -1.771000000    -2.157000000     1.134000000
O    -2.164000000    -2.094000000     2.273000000
O    -2.070000000    -3.108000000     0.419000000
O     3.939000000     0.003000000    -1.433000000
H     3.957000000    -0.022000000    -2.389000000
H     3.944000000     0.936000000    -1.218000000
O     2.431000000     3.667000000     1.098000000
H     2.770000000     3.818000000     1.981000000
H     1.993000000     4.485000000     0.866000000
O     0.284000000    -5.422000000    -2.026000000
H    -0.364000000    -5.681000000    -1.371000000
H     1.128000000    -5.567000000    -1.598000000
O     6.948000000     0.139000000    -1.789000000
H     7.286000000    -0.010000000    -0.906000000
H     5.998000000     0.055000000    -1.699000000
O    -1.155000000    -4.600000000     3.254000000
H    -0.328000000    -4.247000000     3.582000000
H    -1.456000000    -3.951000000     2.618000000
O    -3.378000000     2.773000000    -3.383000000
H    -2.608000000     3.102000000    -3.847000000
H    -4.085000000     2.825000000    -4.026000000
O    -3.714000000    -3.021000000     4.165000000
H    -3.166000000    -2.680000000     3.459000000
H    -3.117000000    -3.543000000     4.701000000
O    -4.477000000     1.008000000    -0.697000000
H    -4.364000000     0.469000000    -1.479000000
H    -5.056000000     0.494000000    -0.133000000
O    -2.813000000     3.144000000    -0.861000000
H    -2.920000000     3.067000000    -1.809000000
H    -3.034000000     2.276000000    -0.523000000
O    -2.052000000     0.488000000     5.397000000
H    -2.975000000     0.364000000     5.176000000
H    -1.922000000    -0.037000000     6.187000000
O    -0.860000000    -3.580000000    -3.601000000
H    -1.564000000    -3.229000000    -3.055000000
H    -0.269000000    -4.010000000    -2.982000000
O     3.952000000     2.615000000    -1.095000000
H     3.515000000     2.792000000    -1.928000000
H     3.377000000     3.001000000    -0.435000000
O    -0.183000000     3.711000000    -2.579000000
H    -0.574000000     3.675000000    -3.452000000
H    -0.932000000     3.755000000    -1.984000000
O     6.339000000     3.992000000    -1.402000000
H     6.067000000     4.598000000    -2.092000000
H     5.613000000     3.374000000    -1.325000000
O    -2.098000000    -1.876000000    -5.498000000
H    -2.766000000    -2.483000000    -5.816000000
H    -1.391000000    -2.440000000    -5.186000000
O     2.259000000     2.598000000    -3.097000000
H     1.523000000     3.199000000    -2.979000000
H     2.243000000     2.381000000    -4.030000000
O    -1.526000000     2.630000000     4.173000000
H    -1.389000000     2.478000000     3.238000000
H    -1.667000000     1.757000000     4.539000000
O     2.061000000    -1.081000000     2.191000000
H     1.707000000    -0.486000000     1.531000000
H     2.026000000    -1.944000000     1.780000000
O    -4.740000000     1.593000000     2.348000000
H    -4.567000000     0.925000000     3.012000000
H    -5.121000000     1.109000000     1.616000000
O    -5.894000000    -2.716000000    -1.238000000
H    -5.055000000    -2.722000000    -0.777000000
H    -6.098000000    -3.641000000    -1.377000000
O     3.539000000    -2.926000000    -1.038000000
H     3.480000000    -1.979000000    -1.168000000
H     4.384000000    -3.057000000    -0.608000000
O    -4.597000000    -0.153000000     4.542000000
H    -4.372000000    -0.967000000     4.092000000
H    -5.490000000    -0.293000000     4.857000000
O     0.004000000     6.986000000    -2.985000000
H     0.381000000     7.866000000    -2.982000000
H     0.568000000     6.482000000    -2.398000000
O    -1.551000000     6.005000000     0.399000000
H    -1.918000000     5.698000000     1.228000000
H    -2.040000000     5.528000000    -0.271000000
O    -1.602000000    -5.868000000     0.089000000
H    -0.861000000    -6.108000000     0.645000000
H    -1.718000000    -4.929000000     0.236000000
O    -3.401000000    -6.808000000    -2.064000000
H    -2.874000000    -7.588000000    -2.235000000
H    -2.790000000    -6.188000000    -1.667000000
O    -3.287000000    -7.366000000     2.239000000
H    -2.952000000    -6.527000000     1.922000000
H    -4.171000000    -7.424000000     1.876000000
O    -5.356000000    -5.799000000    -0.518000000
H    -6.241000000    -5.988000000    -0.831000000
H    -4.781000000    -6.225000000    -1.154000000
O     0.545000000     4.195000000     4.912000000
H    -0.305000000     4.016000000     4.511000000
H     0.584000000     3.605000000     5.664000000
O    -0.654000000    -2.118000000     6.951000000
H    -0.196000000    -1.835000000     6.159000000
H    -0.966000000    -2.999000000     6.745000000
O     4.836000000     0.874000000     1.175000000
H     4.829000000     0.010000000     0.763000000
H     4.394000000     1.443000000     0.545000000
O    -4.798000000    -4.582000000    -3.513000000
H    -4.273000000    -5.354000000    -3.726000000
H    -4.208000000    -4.024000000    -3.006000000
O     0.938000000     6.515000000    -0.043000000
H     0.027000000     6.474000000     0.246000000
H     1.436000000     6.678000000     0.759000000
O     1.187000000     0.942000000     5.478000000
H     0.730000000     0.145000000     5.208000000
H     0.996000000     1.574000000     4.785000000
O    -0.079000000    -1.271000000     4.166000000
H    -0.695000000    -1.727000000     3.592000000
H     0.729000000    -1.216000000     3.655000000
O     1.549000000    -2.593000000    -4.797000000
H     0.900000000    -3.102000000    -4.310000000
H     1.201000000    -2.553000000    -5.688000000
O    -4.574000000    -3.703000000     1.158000000
H    -4.601000000    -4.519000000     0.658000000
H    -3.676000000    -3.388000000     1.053000000
O    -6.092000000    -0.419000000     0.914000000
H    -6.241000000    -1.319000000     1.205000000
H    -6.970000000    -0.068000000     0.764000000
O     2.942000000     4.611000000     3.768000000
H     3.518000000     4.967000000     4.443000000
H     2.133000000     4.396000000     4.232000000
O     1.692000000    -3.401000000     1.119000000
H     1.361000000    -4.267000000     1.358000000
H     2.173000000    -3.545000000     0.304000000
O     2.761000000     6.192000000    -2.472000000
H     2.227000000     5.588000000    -2.990000000
H     2.421000000     6.107000000    -1.581000000
O     2.377000000     1.673000000    -5.841000000
H     2.507000000     2.248000000    -6.594000000
H     1.806000000     0.977000000    -6.166000000
O     2.866000000     1.332000000     3.432000000
H     3.491000000     1.583000000     2.753000000
H     2.762000000     0.386000000     3.325000000
O    -6.336000000    -2.898000000     3.110000000
H    -5.705000000    -2.861000000     3.829000000
H    -5.803000000    -3.050000000     2.331000000
O     3.743000000    -0.706000000    -4.575000000
H     3.057000000    -1.369000000    -4.659000000
H     3.321000000     0.110000000    -4.841000000
O    -2.959000000    -2.464000000    -2.144000000
H    -2.779000000    -2.354000000    -1.211000000
H    -3.022000000    -1.571000000    -2.483000000
O     0.589000000    -6.185000000     1.481000000
H     1.248000000    -6.877000000     1.528000000
H     0.356000000    -6.014000000     2.393000000
O     3.704000000    -4.020000000    -3.539000000
H     2.903000000    -3.647000000    -3.908000000
H     3.642000000    -3.839000000    -2.601000000
