158
-3033.74961
C     0.045000000    -1.463000000    -0.213000000
H     0.075000000    -2.509000000    -0.506000000
C     0.998000000    -0.589000000    -0.659000000
H     1.777000000    -1.050000000    -1.260000000
C     0.897000000     0.738000000    -0.401000000
H     1.642000000     1.310000000    -0.846000000
C    -0.249000000     1.227000000     0.187000000
H    -0.343000000     2.301000000     0.326000000
C    -1.213000000     0.356000000     0.716000000
H    -2.083000000     0.683000000     1.279000000
C    -1.070000000    -0.996000000     0.522000000
C    -2.191000000    -1.862000000     1.009000000
O    -3.114000000    -1.522000000     1.695000000
O    -2.060000000    -3.050000000     0.799000000
O     4.035000000     0.564000000    -2.014000000
H     3.974000000     0.153000000    -2.876000000
H     3.946000000     1.501000000    -2.188000000
O     3.195000000     3.400000000    -0.854000000
H     2.632000000     3.829000000    -1.499000000
H     2.877000000     3.720000000    -0.010000000
O     0.499000000    -5.847000000    -1.666000000
H    -0.049000000    -5.548000000    -0.940000000
H     0.763000000    -6.733000000    -1.418000000
O     6.894000000    -0.264000000    -1.635000000
H     6.814000000    -0.649000000    -0.762000000
H     5.990000000    -0.128000000    -1.921000000
O    -2.608000000    -4.398000000     3.187000000
H    -1.883000000    -5.020000000     3.117000000
H    -2.503000000    -3.823000000     2.429000000
O    -2.042000000    -1.894000000     4.210000000
H    -2.446000000    -1.678000000     3.370000000
H    -2.107000000    -2.847000000     4.269000000
O    -5.258000000     0.314000000     1.305000000
H    -4.564000000    -0.322000000     1.134000000
H    -6.068000000    -0.192000000     1.240000000
O    -3.137000000    -1.305000000    -2.997000000
H    -2.192000000    -1.156000000    -2.961000000
H    -3.438000000    -0.757000000    -3.722000000
O     3.976000000     6.562000000    -1.440000000
H     3.276000000     6.874000000    -0.866000000
H     3.526000000     6.040000000    -2.104000000
O    -4.032000000     3.024000000     0.929000000
H    -3.915000000     3.139000000    -0.014000000
H    -4.083000000     2.076000000     1.050000000
O     1.460000000    -3.649000000    -3.177000000
H     1.295000000    -4.348000000    -2.544000000
H     2.205000000    -3.169000000    -2.815000000
O     6.384000000     3.720000000    -1.812000000
H     6.181000000     4.438000000    -1.213000000
H     5.547000000     3.275000000    -1.945000000
O    -0.867000000     1.915000000    -2.889000000
H    -0.608000000     1.143000000    -3.391000000
H    -0.761000000     1.652000000    -1.974000000
O    -2.658000000     3.679000000     4.442000000
H    -3.072000000     2.830000000     4.293000000
H    -3.071000000     4.011000000     5.238000000
O    -0.443000000    -0.926000000    -3.406000000
H     0.239000000    -1.497000000    -3.052000000
H    -0.345000000    -0.997000000    -4.356000000
O     1.094000000     4.366000000    -2.790000000
H     0.411000000     3.721000000    -2.973000000
H     1.660000000     4.341000000    -3.562000000
O    -0.332000000     4.546000000     3.222000000
H    -0.290000000     5.451000000     3.533000000
H    -1.049000000     4.154000000     3.720000000
O     1.809000000    -0.448000000     2.899000000
H     1.617000000    -0.162000000     2.006000000
H     2.695000000    -0.807000000     2.850000000
O     6.142000000     2.614000000     1.383000000
H     5.399000000     2.036000000     1.208000000
H     5.846000000     3.477000000     1.094000000
O    -3.089000000     0.805000000     3.842000000
H    -2.261000000     0.396000000     4.093000000
H    -3.506000000     0.166000000     3.263000000
O    -6.153000000    -2.996000000    -1.489000000
H    -6.347000000    -2.819000000    -0.569000000
H    -5.205000000    -3.125000000    -1.513000000
O     3.429000000    -3.425000000    -1.178000000
H     3.049000000    -3.607000000    -0.319000000
H     3.890000000    -4.230000000    -1.411000000
O     0.552000000     0.538000000    -5.894000000
H     1.033000000    -0.041000000    -6.485000000
H     0.103000000     1.153000000    -6.474000000
O     5.759000000     5.218000000     0.418000000
H     5.033000000     5.621000000    -0.059000000
H     6.323000000     5.952000000     0.661000000
O     0.290000000     6.656000000    -1.223000000
H    -0.514000000     6.304000000    -0.842000000
H     0.587000000     5.976000000    -1.827000000
O    -2.711000000     5.909000000    -1.984000000
H    -3.366000000     6.294000000    -2.566000000
H    -2.311000000     5.211000000    -2.502000000
O    -1.897000000     6.200000000     0.430000000
H    -2.562000000     5.896000000     1.047000000
H    -2.361000000     6.276000000    -0.404000000
O    -0.832000000    -5.332000000     0.546000000
H    -0.811000000    -5.432000000     1.497000000
H    -1.268000000    -4.492000000     0.402000000
O    -5.120000000    -5.154000000     4.360000000
H    -4.433000000    -4.959000000     3.722000000
H    -5.920000000    -5.221000000     3.838000000
O    -4.772000000    -5.104000000     0.528000000
H    -5.389000000    -5.499000000    -0.088000000
H    -4.223000000    -4.536000000    -0.014000000
O     4.301000000     0.619000000     0.909000000
H     4.950000000    -0.076000000     1.019000000
H     4.105000000     0.616000000    -0.028000000
O     1.986000000     4.669000000     1.689000000
H     1.077000000     4.507000000     1.942000000
H     2.185000000     5.533000000     2.049000000
O     2.390000000    -4.583000000     1.189000000
H     1.529000000    -5.000000000     1.154000000
H     3.010000000    -5.304000000     1.075000000
O     0.310000000    -0.598000000     5.136000000
H    -0.455000000    -1.156000000     4.999000000
H     0.755000000    -0.589000000     4.289000000
O    -5.392000000    -2.902000000     2.177000000
H    -5.298000000    -3.693000000     1.645000000
H    -4.517000000    -2.513000000     2.183000000
O    -7.636000000    -1.376000000     0.322000000
H    -8.521000000    -1.111000000     0.573000000
H    -7.516000000    -1.011000000    -0.555000000
O    -4.489000000    -7.615000000     1.703000000
H    -4.118000000    -6.861000000     1.246000000
H    -3.819000000    -8.295000000     1.627000000
O     3.860000000    -2.470000000     2.066000000
H     4.624000000    -3.012000000     1.870000000
H     3.111000000    -3.020000000     1.837000000
O     3.821000000     4.848000000    -3.732000000
H     4.776000000     4.858000000    -3.791000000
H     3.524000000     4.971000000    -4.634000000
O    -1.510000000     4.266000000    -3.980000000
H    -1.003000000     4.415000000    -4.778000000
H    -1.278000000     3.378000000    -3.710000000
O     3.367000000     2.196000000     3.077000000
H     3.048000000     3.036000000     2.748000000
H     3.404000000     1.634000000     2.303000000
O    -3.564000000     5.256000000     2.256000000
H    -3.189000000     4.968000000     3.088000000
H    -3.832000000     4.447000000     1.821000000
O    -6.416000000    -2.250000000     4.802000000
H    -6.245000000    -2.899000000     5.484000000
H    -6.027000000    -2.625000000     4.012000000
O    -4.110000000     1.825000000    -1.903000000
H    -4.832000000     1.209000000    -2.028000000
H    -3.523000000     1.658000000    -2.641000000
O     6.620000000    -1.035000000     0.963000000
H     6.614000000    -1.975000000     0.782000000
H     6.724000000    -0.974000000     1.913000000
O     3.138000000    -0.165000000    -4.407000000
H     2.227000000     0.028000000    -4.627000000
H     3.483000000    -0.608000000    -5.183000000
O    -3.529000000    -3.457000000    -1.437000000
H    -2.922000000    -3.348000000    -0.706000000
H    -3.364000000    -2.701000000    -2.001000000
O    -0.641000000    -6.233000000     3.095000000
H    -1.276000000    -6.929000000     3.264000000
H    -0.019000000    -6.296000000     3.820000000
