158
-3018.59038
C    -0.234000000    -1.241000000    -0.830000000
H    -0.419000000    -2.030000000    -1.554000000
C     0.768000000    -0.276000000    -1.041000000
H     1.395000000    -0.344000000    -1.927000000
C     0.895000000     0.845000000    -0.198000000
H     1.660000000     1.498000000    -0.483000000
C     0.013000000     0.959000000     0.870000000
H     0.116000000     1.794000000     1.558000000
C    -0.882000000    -0.059000000     1.185000000
H    -1.428000000    -0.078000000     2.126000000
C    -1.048000000    -1.132000000     0.297000000
C    -2.077000000    -2.271000000     0.579000000
O    -2.850000000    -2.131000000     1.526000000
O    -2.094000000    -3.226000000    -0.146000000
O     4.517000000     0.035000000    -2.495000000
H     3.939000000    -0.138000000    -3.238000000
H     4.817000000     0.934000000    -2.629000000
O     5.523000000     2.442000000    -2.228000000
H     4.812000000     2.934000000    -2.639000000
H     5.779000000     2.975000000    -1.475000000
O     1.390000000    -5.916000000    -2.043000000
H     0.815000000    -5.399000000    -1.480000000
H     2.145000000    -6.121000000    -1.492000000
O    -2.022000000    -3.045000000     3.922000000
H    -1.267000000    -3.594000000     3.709000000
H    -2.407000000    -2.828000000     3.073000000
O    -3.486000000    -0.605000000     4.237000000
H    -3.097000000    -1.085000000     3.506000000
H    -4.353000000    -0.997000000     4.347000000
O    -5.707000000    -1.205000000    -0.113000000
H    -5.830000000    -2.074000000     0.269000000
H    -6.048000000    -1.285000000    -1.004000000
O    -3.411000000    -2.320000000    -3.776000000
H    -2.956000000    -2.451000000    -4.608000000
H    -3.408000000    -1.371000000    -3.648000000
O    -3.927000000     0.547000000    -1.038000000
H    -3.737000000     0.425000000    -1.968000000
H    -4.286000000    -0.293000000    -0.754000000
O     4.318000000     4.223000000     4.419000000
H     5.137000000     3.913000000     4.034000000
H     3.638000000     3.714000000     3.977000000
O    -1.614000000     0.132000000     7.074000000
H    -0.971000000    -0.560000000     6.922000000
H    -1.729000000     0.546000000     6.219000000
O     2.948000000    -4.190000000    -3.780000000
H     2.513000000    -4.850000000    -3.240000000
H     3.417000000    -3.639000000    -3.153000000
O    -0.917000000     1.123000000    -4.983000000
H    -0.460000000     1.922000000    -4.721000000
H    -0.277000000     0.425000000    -4.845000000
O    -0.802000000     4.231000000     2.666000000
H    -0.933000000     3.406000000     3.132000000
H    -1.310000000     4.872000000     3.164000000
O    -0.177000000    -1.578000000    -4.702000000
H     0.110000000    -1.752000000    -5.599000000
H    -0.907000000    -2.181000000    -4.562000000
O    -1.349000000     5.655000000     0.368000000
H    -1.923000000     5.074000000    -0.133000000
H    -1.102000000     5.141000000     1.137000000
O     1.657000000    -1.301000000     2.428000000
H     1.045000000    -1.169000000     1.704000000
H     2.307000000    -1.912000000     2.083000000
O     7.071000000     1.551000000     0.576000000
H     6.258000000     1.153000000     0.265000000
H     7.713000000     1.346000000    -0.104000000
O    -2.084000000     2.356000000     4.596000000
H    -2.787000000     2.995000000     4.717000000
H    -2.526000000     1.576000000     4.260000000
O    -5.884000000    -4.373000000    -3.243000000
H    -6.300000000    -3.552000000    -2.980000000
H    -5.088000000    -4.419000000    -2.713000000
O     4.489000000    -2.900000000    -2.097000000
H     3.958000000    -2.966000000    -1.303000000
H     4.339000000    -2.008000000    -2.411000000
O     6.063000000     4.453000000    -0.285000000
H     5.305000000     4.956000000    -0.586000000
H     6.288000000     4.842000000     0.560000000
O    -2.027000000     4.188000000    -3.658000000
H    -1.819000000     3.588000000    -2.942000000
H    -1.202000000     4.291000000    -4.132000000
O    -1.314000000     2.555000000    -1.703000000
H    -2.069000000     2.338000000    -1.156000000
H    -0.594000000     2.046000000    -1.331000000
O     6.563000000     3.012000000     3.106000000
H     5.960000000     2.763000000     2.406000000
H     7.415000000     2.688000000     2.815000000
O     0.072000000    -4.701000000     0.061000000
H     0.125000000    -4.548000000     1.004000000
H    -0.729000000    -4.254000000    -0.210000000
O    -4.043000000    -6.403000000     0.364000000
H    -4.324000000    -7.286000000     0.124000000
H    -3.551000000    -6.093000000    -0.397000000
O     0.892000000     1.582000000     6.241000000
H     0.242000000     1.985000000     5.667000000
H     1.555000000     1.233000000     5.645000000
O    -0.617000000    -2.314000000     6.375000000
H    -1.072000000    -2.450000000     5.544000000
H    -0.030000000    -3.067000000     6.453000000
O     4.682000000     0.386000000     0.247000000
H     4.364000000    -0.379000000     0.727000000
H     4.513000000     0.178000000    -0.672000000
O    -3.275000000    -7.061000000    -3.214000000
H    -2.320000000    -7.027000000    -3.166000000
H    -3.561000000    -6.198000000    -2.916000000
O     2.888000000     4.297000000    -1.120000000
H     2.008000000     4.525000000    -1.418000000
H     3.435000000     5.029000000    -1.405000000
O     0.844000000     5.380000000     4.798000000
H     1.221000000     4.675000000     4.272000000
H     1.149000000     5.204000000     5.688000000
O     2.618000000    -3.642000000     0.072000000
H     1.731000000    -3.971000000    -0.071000000
H     3.096000000    -4.389000000     0.433000000
O     3.147000000     0.826000000     3.777000000
H     3.640000000     1.028000000     2.982000000
H     2.474000000     0.208000000     3.491000000
O    -4.948000000    -3.615000000     1.005000000
H    -4.594000000    -4.452000000     0.705000000
H    -4.187000000    -3.037000000     1.055000000
O    -3.482000000    -6.396000000     3.035000000
H    -3.331000000    -6.340000000     2.092000000
H    -3.066000000    -7.217000000     3.297000000
O     1.937000000     3.500000000     3.043000000
H     1.195000000     3.859000000     2.556000000
H     2.552000000     3.216000000     2.366000000
O     2.331000000     5.679000000    -4.201000000
H     2.761000000     4.827000000    -4.135000000
H     2.405000000     5.914000000    -5.126000000
O    -7.524000000    -3.824000000     0.627000000
H    -7.805000000    -3.749000000     1.539000000
H    -6.571000000    -3.743000000     0.663000000
O     3.816000000     3.453000000    -4.292000000
H     4.218000000     4.097000000    -4.875000000
H     3.631000000     2.702000000    -4.856000000
O     2.200000000     1.836000000    -6.045000000
H     3.004000000     1.937000000    -6.555000000
H     2.364000000     1.075000000    -5.488000000
O     3.622000000     3.027000000     1.043000000
H     3.309000000     3.466000000     0.253000000
H     4.217000000     2.349000000     0.721000000
O    -3.625000000     3.276000000    -0.156000000
H    -4.101000000     3.187000000     0.670000000
H    -3.754000000     2.437000000    -0.598000000
O    -4.962000000    -2.883000000     3.993000000
H    -5.747000000    -3.431000000     3.969000000
H    -4.455000000    -3.158000000     3.229000000
O    -3.119000000     0.630000000    -3.794000000
H    -3.532000000     1.447000000    -4.074000000
H    -2.286000000     0.610000000    -4.265000000
O     2.774000000    -0.860000000    -4.659000000
H     2.192000000    -1.619000000    -4.629000000
H     3.497000000    -1.134000000    -5.222000000
O    -3.622000000    -4.351000000    -1.798000000
H    -2.960000000    -4.046000000    -1.177000000
H    -3.535000000    -3.764000000    -2.548000000
O     0.265000000    -4.471000000     2.763000000
H     0.207000000    -5.294000000     3.247000000
H     0.956000000    -3.979000000     3.208000000
