158
-3019.97687
C     0.462000000    -1.420000000     0.220000000
H     0.835000000    -2.430000000     0.366000000
C     1.236000000    -0.406000000    -0.366000000
H     2.280000000    -0.587000000    -0.611000000
C     0.631000000     0.900000000    -0.530000000
H     1.211000000     1.761000000    -1.020000000
C    -0.611000000     1.167000000    -0.091000000
H    -1.028000000     2.166000000    -0.193000000
C    -1.358000000     0.154000000     0.447000000
H    -2.312000000     0.387000000     0.913000000
C    -0.855000000    -1.163000000     0.584000000
C    -1.706000000    -2.281000000     1.177000000
O    -2.861000000    -2.072000000     1.420000000
O    -1.352000000    -3.409000000     0.856000000
O     1.807000000    -1.079000000    -3.204000000
H     1.288000000    -1.011000000    -2.402000000
H     2.468000000    -0.392000000    -3.120000000
O     3.439000000     0.806000000    -3.073000000
H     2.729000000     1.273000000    -3.513000000
H     3.596000000     1.309000000    -2.273000000
O    -4.641000000     1.082000000     1.726000000
H    -4.932000000     1.345000000     0.852000000
H    -4.749000000     0.131000000     1.739000000
O     2.746000000     3.586000000     2.834000000
H     2.841000000     2.725000000     2.428000000
H     2.043000000     3.473000000     3.474000000
O     1.294000000    -2.344000000    -5.544000000
H     1.646000000    -1.850000000    -4.803000000
H     0.704000000    -2.984000000    -5.146000000
O     0.736000000    -0.446000000     4.201000000
H     1.160000000    -0.827000000     4.969000000
H     1.040000000    -0.982000000     3.469000000
O    -4.646000000    -1.444000000     3.430000000
H    -3.838000000    -1.602000000     2.941000000
H    -4.373000000    -1.440000000     4.348000000
O     2.093000000    -5.282000000    -0.151000000
H     2.378000000    -5.350000000     0.760000000
H     1.648000000    -6.112000000    -0.325000000
O     4.024000000    -3.075000000     0.222000000
H     3.349000000    -3.382000000    -0.383000000
H     4.601000000    -3.829000000     0.341000000
O     3.901000000    -3.190000000    -2.794000000
H     3.906000000    -3.818000000    -3.516000000
H     3.019000000    -2.816000000    -2.808000000
O     6.236000000    -0.117000000    -3.872000000
H     5.778000000    -0.540000000    -4.599000000
H     5.552000000     0.362000000    -3.405000000
O    -6.064000000     1.772000000    -0.537000000
H    -5.278000000     1.422000000    -0.958000000
H    -6.774000000     1.559000000    -1.142000000
O     5.607000000     0.342000000     3.611000000
H     5.327000000     0.551000000     4.502000000
H     5.171000000     0.995000000     3.063000000
O    -3.679000000     2.293000000     4.056000000
H    -3.895000000     1.971000000     3.181000000
H    -2.967000000     1.726000000     4.351000000
O    -3.929000000     0.868000000    -2.256000000
H    -3.568000000    -0.017000000    -2.315000000
H    -3.883000000     1.205000000    -3.151000000
O     2.463000000     0.879000000     2.047000000
H     1.640000000     0.836000000     1.560000000
H     2.602000000    -0.015000000     2.362000000
O    -3.308000000    -7.959000000     1.149000000
H    -3.183000000    -7.113000000     0.718000000
H    -4.248000000    -8.127000000     1.077000000
O    -0.949000000    -8.051000000     3.604000000
H    -0.800000000    -7.698000000     2.727000000
H    -1.570000000    -7.443000000     4.005000000
O     5.481000000     4.267000000     0.223000000
H     5.580000000     3.328000000     0.384000000
H     4.536000000     4.414000000     0.237000000
O    -1.038000000     7.326000000    -1.057000000
H    -0.282000000     6.990000000    -0.575000000
H    -1.659000000     7.587000000    -0.377000000
O     3.653000000     5.757000000    -4.112000000
H     3.356000000     5.033000000    -3.561000000
H     4.302000000     6.214000000    -3.578000000
O    -0.426000000    -3.990000000    -4.608000000
H    -1.356000000    -4.209000000    -4.669000000
H    -0.234000000    -4.021000000    -3.671000000
O    -2.961000000    -1.638000000    -2.104000000
H    -3.012000000    -2.448000000    -2.610000000
H    -2.654000000    -1.914000000    -1.240000000
O    -1.966000000     3.254000000    -2.539000000
H    -2.271000000     2.667000000    -1.847000000
H    -2.648000000     3.922000000    -2.606000000
O    -1.756000000     0.899000000     5.085000000
H    -1.555000000     0.763000000     6.011000000
H    -1.022000000     0.499000000     4.619000000
O     2.842000000    -6.239000000     2.306000000
H     2.565000000    -5.537000000     2.895000000
H     2.472000000    -7.034000000     2.690000000
O     3.055000000     0.991000000    -6.830000000
H     2.175000000     1.130000000    -6.479000000
H     3.630000000     1.468000000    -6.232000000
O     5.115000000    -0.507000000     0.414000000
H     5.804000000    -0.972000000     0.890000000
H     4.525000000    -1.197000000     0.112000000
O     2.606000000     3.588000000    -2.545000000
H     2.368000000     3.925000000    -1.681000000
H     1.818000000     3.710000000    -3.075000000
O     1.753000000    -4.747000000     4.107000000
H     0.815000000    -4.633000000     4.261000000
H     2.048000000    -5.304000000     4.829000000
O     2.400000000    -2.176000000     2.565000000
H     2.600000000    -2.988000000     3.031000000
H     3.038000000    -2.147000000     1.852000000
O    -6.828000000    -2.147000000     1.932000000
H    -6.310000000    -1.908000000     1.163000000
H    -6.249000000    -1.975000000     2.674000000
O    -0.977000000     3.837000000     4.055000000
H    -1.795000000     3.527000000     3.664000000
H    -0.551000000     3.043000000     4.379000000
O     1.211000000     1.841000000    -4.720000000
H     0.565000000     1.178000000    -4.473000000
H     0.848000000     2.663000000    -4.389000000
O    -0.286000000    -4.016000000    -1.641000000
H    -0.677000000    -3.746000000    -0.810000000
H     0.458000000    -4.563000000    -1.389000000
O     6.322000000     1.662000000    -0.136000000
H     7.023000000     1.452000000     0.480000000
H     5.653000000     0.997000000     0.025000000
O    -0.150000000    -7.197000000    -0.699000000
H    -0.864000000    -7.375000000    -1.312000000
H     0.004000000    -8.034000000    -0.261000000
O     1.762000000     7.251000000    -0.062000000
H     1.513000000     7.759000000     0.710000000
H     2.028000000     7.907000000    -0.705000000
O    -1.035000000     0.307000000    -3.832000000
H    -1.897000000     0.695000000    -3.684000000
H    -1.180000000    -0.636000000    -3.756000000
O    -5.064000000    -1.434000000    -0.081000000
H    -4.663000000    -1.308000000    -0.941000000
H    -4.341000000    -1.708000000     0.483000000
O     2.540000000     4.416000000     0.232000000
H     2.314000000     4.022000000     1.075000000
H     2.459000000     5.358000000     0.378000000
O     0.165000000     4.132000000    -3.680000000
H    -0.685000000     3.742000000    -3.475000000
H    -0.026000000     5.056000000    -3.838000000
O    -4.901000000     4.544000000    -0.276000000
H    -4.588000000     4.656000000    -1.174000000
H    -5.196000000     3.634000000    -0.237000000
O    -3.994000000    -1.172000000     6.092000000
H    -4.252000000    -0.676000000     6.870000000
H    -3.046000000    -1.050000000     6.034000000
O    -3.166000000    -5.426000000     0.369000000
H    -2.391000000    -4.877000000     0.495000000
H    -3.325000000    -5.402000000    -0.574000000
O    -0.492000000    -5.828000000     1.594000000
H    -0.539000000    -4.885000000     1.439000000
H    -0.349000000    -6.206000000     0.726000000
O    -3.885000000    -4.591000000     2.744000000
H    -3.554000000    -3.694000000     2.692000000
H    -3.545000000    -5.018000000     1.957000000
O    -0.920000000    -5.093000000     4.403000000
H    -0.596000000    -5.420000000     3.563000000
H    -1.827000000    -4.844000000     4.228000000
