158
-3045.22289
C     0.490000000    -1.387000000     0.120000000
H     1.013000000    -2.336000000     0.033000000
C     0.466000000    -0.544000000    -0.956000000
H     0.928000000    -0.958000000    -1.849000000
C    -0.023000000     0.726000000    -0.995000000
H     0.059000000     1.359000000    -1.869000000
C    -0.661000000     1.191000000     0.100000000
H    -0.948000000     2.236000000     0.191000000
C    -0.714000000     0.362000000     1.238000000
H    -1.137000000     0.784000000     2.146000000
C    -0.131000000    -0.917000000     1.224000000
C    -0.261000000    -1.788000000     2.498000000
O    -0.762000000    -1.309000000     3.505000000
O     0.357000000    -2.835000000     2.603000000
O     2.744000000     0.495000000    -3.990000000
H     2.820000000     1.448000000    -3.959000000
H     2.852000000     0.216000000    -3.081000000
O     4.257000000     1.854000000    -1.074000000
H     3.430000000     2.297000000    -1.264000000
H     4.040000000     1.227000000    -0.383000000
O     0.818000000    -6.879000000     2.840000000
H     1.049000000    -7.507000000     2.155000000
H     0.080000000    -7.284000000     3.296000000
O    -4.997000000     2.957000000    -4.070000000
H    -4.490000000     2.214000000    -4.395000000
H    -4.393000000     3.698000000    -4.117000000
O    -3.738000000     2.322000000     1.549000000
H    -4.327000000     2.381000000     0.797000000
H    -3.619000000     1.383000000     1.689000000
O    -2.463000000    -4.541000000    -2.375000000
H    -1.848000000    -5.100000000    -1.899000000
H    -2.900000000    -5.134000000    -2.986000000
O     0.699000000    -3.415000000    -4.786000000
H    -0.246000000    -3.551000000    -4.716000000
H     0.819000000    -2.999000000    -5.640000000
O     2.106000000     4.955000000     1.693000000
H     1.217000000     4.949000000     2.046000000
H     2.037000000     5.450000000     0.877000000
O    -3.224000000    -1.387000000     1.998000000
H    -2.695000000    -1.699000000     2.732000000
H    -2.985000000    -1.959000000     1.269000000
O     4.366000000    -2.572000000    -1.870000000
H     4.756000000    -2.250000000    -2.683000000
H     3.551000000    -2.993000000    -2.146000000
O     2.958000000    -0.261000000     3.050000000
H     2.853000000    -1.058000000     2.531000000
H     3.706000000    -0.443000000     3.620000000
O    -1.472000000    -2.976000000     7.445000000
H    -1.817000000    -2.094000000     7.303000000
H    -1.369000000    -3.338000000     6.565000000
O     4.303000000    -0.943000000     0.291000000
H     4.235000000    -1.507000000    -0.479000000
H     5.136000000    -1.187000000     0.694000000
O    -2.873000000     3.648000000     3.705000000
H    -3.273000000     3.230000000     2.942000000
H    -2.345000000     2.958000000     4.106000000
O     2.629000000    -5.876000000    -0.950000000
H     2.223000000    -5.161000000    -1.440000000
H     3.569000000    -5.755000000    -1.085000000
O     2.076000000     3.094000000    -3.577000000
H     1.205000000     3.188000000    -3.962000000
H     2.015000000     3.541000000    -2.733000000
O    -2.706000000    -0.344000000    -1.779000000
H    -3.436000000    -0.819000000    -1.382000000
H    -2.043000000    -0.304000000    -1.090000000
O     2.700000000     0.577000000    -6.930000000
H     2.367000000     0.629000000    -6.034000000
H     3.623000000     0.822000000    -6.857000000
O    -2.367000000    -0.038000000    -4.431000000
H    -1.414000000    -0.019000000    -4.517000000
H    -2.520000000    -0.281000000    -3.518000000
O    -1.510000000     1.760000000     5.106000000
H    -0.660000000     1.359000000     4.923000000
H    -1.327000000     2.408000000     5.786000000
O     4.375000000    -3.942000000     4.857000000
H     3.616000000    -4.517000000     4.959000000
H     4.071000000    -3.245000000     4.276000000
O    -2.549000000    -6.763000000     1.687000000
H    -3.156000000    -6.186000000     2.150000000
H    -1.793000000    -6.209000000     1.491000000
O     0.335000000    -0.139000000    -4.802000000
H     0.669000000    -0.830000000    -5.374000000
H     1.091000000     0.126000000    -4.279000000
O     5.059000000    -1.634000000    -4.338000000
H     5.625000000    -1.096000000    -4.891000000
H     4.237000000    -1.697000000    -4.825000000
O    -4.080000000     0.268000000     3.957000000
H    -3.792000000    -0.279000000     3.226000000
H    -3.304000000     0.774000000     4.198000000
O     2.187000000     3.828000000    -0.732000000
H     1.805000000     4.703000000    -0.809000000
H     2.106000000     3.612000000     0.197000000
O     2.867000000     0.454000000     6.688000000
H     2.581000000    -0.328000000     7.161000000
H     2.198000000     0.586000000     6.016000000
O     2.367000000     1.548000000     1.156000000
H     1.773000000     1.224000000     0.479000000
H     2.606000000     0.768000000     1.658000000
O     0.872000000     0.667000000     4.575000000
H     0.330000000     0.013000000     4.134000000
H     1.714000000     0.625000000     4.121000000
O     5.353000000    -4.766000000     1.485000000
H     4.405000000    -4.653000000     1.549000000
H     5.633000000    -4.953000000     2.381000000
O     1.695000000    -4.945000000     5.702000000
H     1.381000000    -5.847000000     5.645000000
H     0.926000000    -4.410000000     5.503000000
O    -2.626000000    -3.488000000     0.173000000
H    -2.415000000    -3.362000000    -0.752000000
H    -1.939000000    -4.070000000     0.499000000
O     4.018000000     4.798000000    -5.102000000
H     3.498000000     4.333000000    -4.447000000
H     4.200000000     4.141000000    -5.774000000
O    -2.988000000     2.670000000    -1.543000000
H    -2.561000000     1.816000000    -1.605000000
H    -3.923000000     2.477000000    -1.610000000
O    -3.396000000     1.333000000    -6.565000000
H    -4.095000000     0.760000000    -6.879000000
H    -3.020000000     0.866000000    -5.819000000
O     2.564000000    -4.655000000     2.516000000
H     1.897000000    -3.969000000     2.478000000
H     2.070000000    -5.461000000     2.669000000
O    -0.450000000    -6.321000000    -1.571000000
H     0.349000000    -5.995000000    -1.158000000
H    -0.253000000    -7.232000000    -1.790000000
O     1.789000000    -3.483000000    -2.361000000
H     1.313000000    -2.764000000    -1.946000000
H     1.290000000    -3.674000000    -3.155000000
O    -2.973000000     4.768000000    -4.394000000
H    -2.131000000     4.469000000    -4.052000000
H    -3.272000000     5.419000000    -3.760000000
O    -2.835000000     5.053000000    -0.060000000
H    -2.828000000     4.223000000    -0.537000000
H    -3.755000000     5.193000000     0.164000000
O     1.339000000     6.429000000    -0.882000000
H     1.522000000     7.305000000    -0.541000000
H     1.096000000     6.574000000    -1.796000000
O    -0.365000000     4.639000000    -3.154000000
H    -0.249000000     4.736000000    -2.208000000
H    -0.026000000     5.456000000    -3.521000000
O    -0.746000000     5.277000000     1.799000000
H    -1.409000000     5.195000000     1.113000000
H    -1.059000000     4.710000000     2.504000000
O     5.213000000    -5.162000000    -1.462000000
H     5.491000000    -5.218000000    -0.548000000
H     4.907000000    -4.260000000    -1.564000000
O    -0.514000000    -4.774000000     1.245000000
H    -0.206000000    -4.039000000     1.775000000
H     0.244000000    -5.354000000     1.176000000
O    -0.706000000    -3.855000000     4.838000000
H    -1.491000000    -4.050000000     4.327000000
H    -0.154000000    -3.344000000     4.245000000
O    -3.036000000    -2.142000000     4.917000000
H    -3.249000000    -1.449000000     5.542000000
H    -2.148000000    -1.935000000     4.623000000
O    -2.554000000    -0.347000000     6.970000000
H    -1.994000000     0.428000000     6.944000000
H    -2.942000000    -0.333000000     7.844000000
