158
-3049.71573
C    -0.262000000    -1.374000000     0.334000000
H    -0.648000000    -2.385000000     0.438000000
C     0.315000000    -0.981000000    -0.848000000
H     0.592000000    -1.715000000    -1.600000000
C     0.572000000     0.381000000    -1.037000000
H     1.153000000     0.741000000    -1.924000000
C     0.224000000     1.242000000    -0.033000000
H     0.364000000     2.304000000    -0.216000000
C    -0.380000000     0.826000000     1.126000000
H    -0.660000000     1.637000000     1.793000000
C    -0.708000000    -0.511000000     1.340000000
C    -1.427000000    -0.978000000     2.564000000
O    -1.198000000    -0.390000000     3.582000000
O    -2.175000000    -1.942000000     2.531000000
O     3.656000000     1.522000000    -3.446000000
H     3.848000000     1.453000000    -2.511000000
H     4.264000000     2.188000000    -3.767000000
O     4.431000000     1.448000000    -0.830000000
H     3.849000000     0.879000000    -0.326000000
H     4.660000000     2.152000000    -0.224000000
O    -3.509000000    -6.231000000     0.211000000
H    -3.759000000    -6.903000000     0.846000000
H    -3.284000000    -5.469000000     0.746000000
O    -2.999000000    -0.653000000    -1.441000000
H    -2.300000000    -1.253000000    -1.180000000
H    -3.742000000    -1.223000000    -1.637000000
O     0.503000000    -2.990000000    -4.099000000
H     0.939000000    -3.394000000    -3.349000000
H     0.135000000    -2.176000000    -3.754000000
O    -1.469000000     2.243000000     4.216000000
H    -1.995000000     2.626000000     3.515000000
H    -1.357000000     1.328000000     3.959000000
O    -3.824000000    -3.090000000     0.407000000
H    -3.277000000    -3.567000000    -0.217000000
H    -3.250000000    -2.935000000     1.157000000
O     3.474000000    -2.888000000    -0.162000000
H     3.998000000    -2.987000000    -0.957000000
H     3.891000000    -3.468000000     0.474000000
O    -0.363000000    -2.726000000     6.394000000
H     0.315000000    -2.900000000     5.741000000
H    -0.140000000    -3.297000000     7.129000000
O     3.112000000    -0.397000000     0.816000000
H     2.244000000    -0.026000000     0.657000000
H     3.042000000    -1.305000000     0.522000000
O    -3.831000000     0.537000000     1.361000000
H    -3.254000000     0.269000000     0.646000000
H    -4.030000000    -0.276000000     1.826000000
O     2.716000000     0.285000000     5.278000000
H     1.759000000     0.282000000     5.315000000
H     2.990000000     0.121000000     6.180000000
O    -0.409000000    -6.306000000     0.005000000
H    -0.581000000    -5.671000000     0.700000000
H    -0.029000000    -7.059000000     0.458000000
O     3.393000000    -2.867000000    -5.004000000
H     2.785000000    -3.579000000    -5.202000000
H     4.200000000    -3.108000000    -5.458000000
O     1.369000000     3.041000000    -5.262000000
H     1.540000000     2.357000000    -4.615000000
H     0.453000000     3.281000000    -5.120000000
O    -1.563000000     1.954000000    -2.385000000
H    -2.382000000     1.459000000    -2.352000000
H    -0.994000000     1.518000000    -1.750000000
O     2.605000000     0.029000000    -8.188000000
H     2.197000000    -0.233000000    -7.363000000
H     2.757000000     0.969000000    -8.092000000
O    -0.744000000    -2.657000000    -6.557000000
H    -0.550000000    -2.959000000    -5.670000000
H    -0.030000000    -3.005000000    -7.090000000
O    -0.751000000    -0.247000000    -5.283000000
H     0.197000000    -0.373000000    -5.276000000
H    -1.107000000    -1.117000000    -5.461000000
O    -3.715000000    -0.313000000     4.582000000
H    -2.845000000    -0.286000000     4.184000000
H    -3.691000000    -1.079000000     5.156000000
O     1.974000000    -0.399000000    -5.087000000
H     2.581000000     0.156000000    -4.596000000
H     2.424000000    -1.241000000    -5.158000000
O     4.612000000    -3.733000000    -2.320000000
H     4.193000000    -3.295000000    -3.061000000
H     4.683000000    -4.648000000    -2.591000000
O    -3.334000000    -1.171000000     7.268000000
H    -2.500000000    -0.782000000     7.001000000
H    -3.290000000    -2.073000000     6.951000000
O    -0.219000000     2.530000000     7.698000000
H     0.043000000     3.228000000     7.097000000
H    -0.550000000     1.835000000     7.128000000
O     3.155000000     3.206000000     2.717000000
H     2.282000000     2.821000000     2.802000000
H     3.715000000     2.652000000     3.259000000
O    -0.782000000     0.024000000     6.358000000
H    -0.871000000    -0.064000000     5.409000000
H    -0.241000000    -0.721000000     6.618000000
O    -3.498000000     3.419000000     5.531000000
H    -3.651000000     3.225000000     6.456000000
H    -2.728000000     2.899000000     5.302000000
O     1.534000000    -3.059000000     4.556000000
H     1.867000000    -2.891000000     3.675000000
H     2.298000000    -3.362000000     5.047000000
O     0.331000000     4.054000000     3.123000000
H    -0.238000000     4.649000000     2.636000000
H    -0.271000000     3.480000000     3.597000000
O     1.098000000     4.503000000    -1.723000000
H     1.928000000     4.345000000    -2.173000000
H     0.444000000     4.066000000    -2.268000000
O    -2.452000000     4.758000000    -0.014000000
H    -3.088000000     4.362000000    -0.610000000
H    -1.739000000     5.048000000    -0.582000000
O    -1.007000000    -4.419000000     2.102000000
H    -0.052000000    -4.345000000     2.108000000
H    -1.310000000    -3.649000000     2.584000000
O     6.358000000    -0.520000000    -1.344000000
H     5.632000000     0.090000000    -1.475000000
H     7.083000000     0.031000000    -1.049000000
O     1.234000000    -4.675000000    -1.620000000
H     2.024000000    -4.867000000    -1.114000000
H     0.554000000    -5.214000000    -1.217000000
O    -5.940000000    -0.712000000     2.765000000
H    -5.331000000    -0.598000000     3.495000000
H    -6.787000000    -0.436000000     3.114000000
O     1.893000000    -4.018000000     1.967000000
H     2.327000000    -4.739000000     2.424000000
H     2.336000000    -3.970000000     1.120000000
O    -1.383000000     3.452000000    -4.478000000
H    -1.446000000     3.051000000    -3.611000000
H    -1.866000000     4.275000000    -4.397000000
O    -2.845000000     2.852000000     2.024000000
H    -3.353000000     2.093000000     1.736000000
H    -2.886000000     3.462000000     1.288000000
O    -6.605000000    -3.600000000     0.439000000
H    -6.884000000    -2.795000000     0.003000000
H    -5.653000000    -3.519000000     0.503000000
O    -4.216000000    -5.238000000     5.644000000
H    -3.630000000    -4.486000000     5.563000000
H    -3.816000000    -5.782000000     6.322000000
O     2.287000000    -5.411000000    -4.436000000
H     1.379000000    -5.611000000    -4.663000000
H     2.250000000    -5.144000000    -3.517000000
O    -1.037000000     6.709000000    -2.238000000
H    -0.270000000     6.446000000    -1.729000000
H    -0.815000000     7.575000000    -2.578000000
O    -5.469000000     2.495000000     3.912000000
H    -5.152000000     1.625000000     3.669000000
H    -4.767000000     2.864000000     4.449000000
O     5.722000000    -0.643000000     1.441000000
H     6.163000000    -0.702000000     0.593000000
H     4.802000000    -0.495000000     1.223000000
O    -0.845000000     2.117000000    -7.001000000
H    -1.027000000     2.245000000    -6.070000000
H    -0.427000000     1.257000000    -7.047000000
O    -2.508000000    -4.447000000    -1.618000000
H    -1.614000000    -4.669000000    -1.361000000
H    -3.041000000    -5.165000000    -1.276000000
O    -4.455000000    -5.404000000     2.831000000
H    -5.347000000    -5.478000000     2.493000000
H    -4.561000000    -5.040000000     3.710000000
O    -2.890000000    -3.050000000     4.950000000
H    -2.816000000    -2.710000000     4.059000000
H    -2.009000000    -2.962000000     5.314000000
