158
-3047.39132
C    -0.791000000    -0.994000000     0.722000000
H    -1.352000000    -1.813000000     1.165000000
C    -0.229000000    -1.148000000    -0.577000000
H    -0.325000000    -2.068000000    -1.148000000
C     0.474000000    -0.077000000    -1.155000000
H     1.011000000    -0.184000000    -2.134000000
C     0.564000000     1.161000000    -0.434000000
H     1.175000000     1.971000000    -0.826000000
C     0.005000000     1.244000000     0.846000000
H     0.107000000     2.192000000     1.368000000
C    -0.730000000     0.189000000     1.424000000
C    -1.160000000     0.287000000     2.864000000
O    -0.694000000     1.206000000     3.536000000
O    -1.562000000    -0.729000000     3.360000000
O     6.010000000     1.634000000    -2.207000000
H     5.482000000     2.217000000    -2.753000000
H     6.900000000     1.981000000    -2.278000000
O     4.844000000     0.249000000     1.571000000
H     4.219000000    -0.430000000     1.316000000
H     4.441000000     1.067000000     1.282000000
O    -2.620000000     4.837000000    -1.747000000
H    -3.243000000     4.116000000    -1.837000000
H    -2.325000000     4.786000000    -0.838000000
O    -4.525000000    -1.162000000    -1.031000000
H    -4.833000000    -1.879000000    -0.477000000
H    -4.630000000    -1.488000000    -1.924000000
O    -2.816000000    -3.580000000    -3.354000000
H    -3.629000000    -3.075000000    -3.350000000
H    -2.808000000    -4.028000000    -2.508000000
O     0.258000000    -4.298000000    -4.354000000
H     0.466000000    -4.452000000    -3.432000000
H     0.014000000    -5.160000000    -4.691000000
O    -2.586000000     3.383000000     3.838000000
H    -3.088000000     3.114000000     3.069000000
H    -1.837000000     2.787000000     3.856000000
O     3.214000000     3.314000000    -6.508000000
H     2.503000000     2.890000000    -6.027000000
H     3.168000000     4.233000000    -6.242000000
O    -5.432000000    -3.508000000     0.202000000
H    -5.574000000    -4.427000000     0.426000000
H    -5.086000000    -3.116000000     1.004000000
O    -4.742000000     1.874000000     5.894000000
H    -4.092000000     1.534000000     6.508000000
H    -4.684000000     1.292000000     5.136000000
O     2.095000000    -4.058000000    -0.623000000
H     1.558000000    -4.578000000    -1.221000000
H     2.848000000    -3.789000000    -1.150000000
O    -2.362000000    -2.747000000     6.961000000
H    -1.587000000    -2.494000000     6.460000000
H    -2.022000000    -2.991000000     7.822000000
O     5.579000000    -0.941000000    -0.983000000
H     5.561000000    -0.119000000    -1.473000000
H     5.538000000    -0.674000000    -0.065000000
O     2.881000000    -1.580000000     0.827000000
H     2.051000000    -1.522000000     0.353000000
H     3.271000000    -2.402000000     0.528000000
O     4.064000000     2.822000000     1.349000000
H     4.753000000     3.452000000     1.561000000
H     3.526000000     3.267000000     0.694000000
O    -5.224000000     0.301000000     1.971000000
H    -4.948000000    -0.606000000     2.111000000
H    -6.109000000     0.230000000     1.614000000
O     2.131000000     0.430000000     3.957000000
H     2.405000000     0.246000000     3.059000000
H     1.222000000     0.720000000     3.875000000
O    -3.025000000    -4.916000000    -0.940000000
H    -2.343000000    -4.927000000    -0.269000000
H    -3.828000000    -4.704000000    -0.463000000
O    -0.894000000    -6.148000000     0.421000000
H    -0.122000000    -6.653000000     0.676000000
H    -1.630000000    -6.742000000     0.572000000
O     1.152000000    -1.857000000    -5.432000000
H     1.079000000    -2.773000000    -5.163000000
H     1.482000000    -1.897000000    -6.330000000
O     4.602000000    -1.776000000    -5.232000000
H     5.331000000    -1.200000000    -5.464000000
H     4.608000000    -2.454000000    -5.908000000
O     1.379000000     0.900000000    -7.397000000
H     1.834000000     1.288000000    -6.649000000
H     1.400000000     1.581000000    -8.069000000
O    -2.630000000     0.617000000    -1.905000000
H    -1.866000000     0.573000000    -1.330000000
H    -3.160000000    -0.139000000    -1.657000000
O    -1.708000000    -2.450000000    -5.491000000
H    -2.220000000    -2.815000000    -4.769000000
H    -0.837000000    -2.832000000    -5.384000000
O    -0.288000000     5.274000000    -3.475000000
H    -0.212000000     6.178000000    -3.168000000
H    -0.980000000     4.894000000    -2.934000000
O    -0.876000000     0.767000000    -5.249000000
H    -0.220000000     0.118000000    -5.501000000
H    -1.702000000     0.283000000    -5.244000000
O    -4.849000000    -2.392000000     2.570000000
H    -4.059000000    -2.832000000     2.883000000
H    -5.332000000    -2.172000000     3.367000000
O     2.880000000     0.159000000    -4.417000000
H     3.518000000    -0.453000000    -4.784000000
H     2.042000000    -0.298000000    -4.486000000
O     3.871000000    -2.759000000    -2.539000000
H     4.436000000    -2.346000000    -1.887000000
H     3.817000000    -2.120000000    -3.249000000
O    -3.927000000    -0.418000000     4.834000000
H    -3.586000000    -0.738000000     5.669000000
H    -3.198000000    -0.519000000     4.223000000
O    -0.707000000     0.766000000     8.284000000
H    -0.839000000     1.711000000     8.215000000
H    -0.410000000     0.501000000     7.414000000
O     2.338000000     4.522000000     3.108000000
H     1.704000000     4.310000000     3.793000000
H     2.995000000     3.829000000     3.167000000
O    -0.526000000    -0.308000000     5.887000000
H    -1.322000000    -0.494000000     5.389000000
H    -0.031000000     0.295000000     5.332000000
O    -2.952000000     3.936000000     6.525000000
H    -3.683000000     3.319000000     6.560000000
H    -2.547000000     3.779000000     5.672000000
O     0.679000000    -3.711000000     5.195000000
H     1.578000000    -4.035000000     5.137000000
H     0.492000000    -3.365000000     4.322000000
O     0.947000000     3.424000000     5.306000000
H     0.851000000     3.237000000     6.240000000
H     0.368000000     2.795000000     4.875000000
O     3.165000000     2.625000000    -3.207000000
H     2.978000000     1.694000000    -3.333000000
H     2.559000000     3.073000000    -3.796000000
O    -2.456000000     5.362000000     1.134000000
H    -1.556000000     5.037000000     1.110000000
H    -2.997000000     4.572000000     1.110000000
O    -2.293000000    -3.349000000     3.289000000
H    -1.535000000    -3.857000000     3.000000000
H    -2.033000000    -2.437000000     3.160000000
O     0.292000000     5.027000000     1.409000000
H     0.767000000     4.450000000     0.811000000
H     0.895000000     5.165000000     2.139000000
O     0.405000000    -5.710000000    -1.919000000
H     0.962000000    -6.487000000    -1.894000000
H    -0.071000000    -5.729000000    -1.089000000
O     0.117000000    -3.951000000     1.836000000
H    -0.100000000    -4.800000000     1.453000000
H     0.872000000    -3.647000000     1.332000000
O     0.950000000     2.833000000    -5.086000000
H     0.244000000     2.195000000    -5.187000000
H     0.521000000     3.609000000    -4.725000000
O    -3.322000000     2.475000000     1.146000000
H    -3.555000000     1.629000000     1.528000000
H    -3.905000000     2.566000000     0.393000000
O     2.802000000     4.205000000    -0.598000000
H     3.064000000     5.051000000    -0.960000000
H     3.061000000     3.569000000    -1.264000000
O     0.657000000     6.806000000    -0.927000000
H     1.601000000     6.694000000    -1.046000000
H     0.468000000     6.378000000    -0.092000000
O    -0.719000000    -0.673000000    -8.067000000
H    -0.050000000     0.007000000    -8.149000000
H    -0.499000000    -1.129000000    -7.255000000
O    -4.234000000    -4.760000000     5.103000000
H    -3.479000000    -4.438000000     4.611000000
H    -4.241000000    -4.232000000     5.902000000
