158
-3023.04660
C    -0.398000000    -1.360000000     0.466000000
H    -0.727000000    -2.394000000     0.418000000
C     0.659000000    -1.095000000    -0.415000000
H     0.979000000    -1.912000000    -1.057000000
C     0.956000000     0.229000000    -0.739000000
H     1.863000000     0.473000000    -1.347000000
C     0.190000000     1.251000000    -0.272000000
H     0.564000000     2.258000000    -0.437000000
C    -0.910000000     1.030000000     0.597000000
H    -1.442000000     1.897000000     0.981000000
C    -1.149000000    -0.321000000     1.070000000
C    -2.245000000    -0.687000000     2.125000000
O    -2.813000000     0.204000000     2.713000000
O    -2.611000000    -1.867000000     2.211000000
O     3.095000000    -0.856000000     1.391000000
H     2.334000000    -1.178000000     0.908000000
H     3.756000000    -0.696000000     0.718000000
O    -1.372000000     3.432000000    -3.779000000
H    -1.357000000     4.331000000    -4.108000000
H    -1.413000000     2.890000000    -4.567000000
O    -3.774000000    -4.105000000    -1.346000000
H    -2.956000000    -4.588000000    -1.466000000
H    -3.979000000    -4.209000000    -0.416000000
O    -2.169000000    -2.896000000    -4.547000000
H    -2.127000000    -2.739000000    -5.490000000
H    -1.339000000    -3.326000000    -4.339000000
O     0.070000000    -3.928000000    -3.231000000
H    -0.330000000    -4.306000000    -2.448000000
H     0.291000000    -4.684000000    -3.775000000
O    -2.731000000     2.856000000     3.804000000
H    -2.534000000     3.372000000     3.022000000
H    -3.156000000     2.067000000     3.470000000
O     1.815000000     1.617000000    -6.893000000
H     1.795000000     1.093000000    -6.092000000
H     1.467000000     2.469000000    -6.630000000
O    -2.621000000    -6.741000000     0.938000000
H    -2.404000000    -5.995000000     1.497000000
H    -2.388000000    -7.508000000     1.461000000
O     1.014000000     6.493000000     2.275000000
H     1.044000000     5.539000000     2.203000000
H     0.118000000     6.723000000     2.030000000
O     4.628000000     0.153000000    -0.816000000
H     5.114000000     0.916000000    -0.503000000
H     4.457000000     0.340000000    -1.739000000
O     3.752000000    -4.324000000     1.387000000
H     4.086000000    -3.818000000     0.646000000
H     2.996000000    -4.793000000     1.034000000
O     4.877000000     3.799000000    -1.366000000
H     4.072000000     4.259000000    -1.126000000
H     4.650000000     3.319000000    -2.163000000
O    -7.031000000    -1.020000000     0.285000000
H    -6.859000000    -1.109000000    -0.652000000
H    -6.273000000    -1.423000000     0.707000000
O     2.908000000     2.108000000     2.137000000
H     2.874000000     1.166000000     2.302000000
H     3.829000000     2.285000000     1.947000000
O     1.448000000    -1.637000000    -4.661000000
H     1.057000000    -2.310000000    -4.104000000
H     2.375000000    -1.636000000    -4.422000000
O     5.665000000     2.774000000     1.936000000
H     6.176000000     3.206000000     1.251000000
H     5.506000000     3.459000000     2.585000000
O    -6.614000000     0.709000000     6.248000000
H    -6.300000000     0.571000000     5.355000000
H    -6.540000000    -0.150000000     6.664000000
O     4.711000000     2.347000000    -6.005000000
H     5.070000000     1.673000000    -6.581000000
H     3.821000000     2.489000000    -6.328000000
O    -2.653000000    -0.313000000    -2.161000000
H    -2.794000000    -1.249000000    -2.021000000
H    -1.702000000    -0.219000000    -2.215000000
O    -6.612000000    -4.885000000     1.708000000
H    -7.153000000    -5.024000000     2.486000000
H    -5.958000000    -4.242000000     1.983000000
O    -2.029000000    -4.691000000     2.684000000
H    -2.170000000    -3.745000000     2.644000000
H    -2.851000000    -5.040000000     3.030000000
O     1.375000000     1.178000000    -3.852000000
H     0.717000000     1.792000000    -4.181000000
H     0.999000000     0.314000000    -4.016000000
O     3.869000000    -3.274000000    -3.807000000
H     4.001000000    -3.137000000    -4.745000000
H     3.504000000    -4.156000000    -3.743000000
O     4.199000000    -2.518000000    -0.990000000
H     4.389000000    -1.580000000    -1.012000000
H     4.240000000    -2.792000000    -1.907000000
O    -5.026000000    -2.584000000     1.615000000
H    -5.408000000    -2.231000000     2.418000000
H    -4.117000000    -2.283000000     1.629000000
O     6.869000000    -2.847000000    -3.026000000
H     5.985000000    -2.836000000    -3.394000000
H     7.036000000    -3.770000000    -2.834000000
O    -6.347000000     1.798000000     0.987000000
H    -6.374000000     0.853000000     0.837000000
H    -6.732000000     2.177000000     0.196000000
O    -5.214000000     0.043000000     4.109000000
H    -4.522000000     0.188000000     3.464000000
H    -4.858000000    -0.625000000     4.696000000
O     0.684000000    -5.182000000     2.720000000
H     0.510000000    -5.706000000     1.938000000
H    -0.163000000    -5.123000000     3.162000000
O    -3.471000000     4.203000000     6.034000000
H    -4.255000000     3.837000000     6.445000000
H    -3.362000000     3.694000000     5.231000000
O     1.395000000    -2.343000000     3.532000000
H     1.252000000    -3.057000000     2.911000000
H     1.919000000    -1.705000000     3.047000000
O    -1.826000000     0.484000000     5.199000000
H    -1.817000000     1.423000000     5.385000000
H    -2.085000000     0.424000000     4.279000000
O     3.991000000     1.371000000    -3.236000000
H     4.306000000     1.526000000    -4.127000000
H     3.042000000     1.286000000    -3.329000000
O    -1.337000000     4.478000000    -0.272000000
H    -2.018000000     4.773000000     0.332000000
H    -1.798000000     3.924000000    -0.902000000
O    -3.788000000    -2.667000000     4.325000000
H    -3.390000000    -2.316000000     5.122000000
H    -3.251000000    -2.319000000     3.614000000
O    -0.113000000    -1.504000000     5.671000000
H     0.519000000    -1.635000000     4.964000000
H    -0.618000000    -0.736000000     5.402000000
O     0.875000000     3.858000000     2.622000000
H     1.387000000     3.118000000     2.293000000
H    -0.022000000     3.526000000     2.669000000
O    -1.609000000    -5.840000000    -1.672000000
H    -1.250000000    -6.597000000    -2.133000000
H    -1.795000000    -6.163000000    -0.790000000
O    -4.270000000    -5.452000000     4.421000000
H    -4.438000000    -4.530000000     4.619000000
H    -3.995000000    -5.829000000     5.257000000
O    -1.509000000     1.569000000    -5.785000000
H    -1.450000000     0.835000000    -6.397000000
H    -2.166000000     1.295000000    -5.145000000
O     2.118000000     4.703000000    -3.743000000
H     2.108000000     4.273000000    -4.598000000
H     2.755000000     5.412000000    -3.839000000
O    -3.493000000     4.110000000     1.323000000
H    -3.923000000     3.468000000     0.758000000
H    -4.136000000     4.812000000     1.420000000
O     2.240000000     4.737000000    -0.999000000
H     1.963000000     4.788000000    -1.913000000
H     1.462000000     4.436000000    -0.529000000
O    -0.511000000     7.074000000    -1.578000000
H    -0.996000000     6.533000000    -0.955000000
H    -0.993000000     7.901000000    -1.603000000
O    -3.226000000     2.952000000    -1.830000000
H    -2.526000000     2.703000000    -2.434000000
H    -3.568000000     2.119000000    -1.504000000
O    -5.797000000     2.740000000     3.427000000
H    -5.760000000     1.840000000     3.753000000
H    -5.967000000     2.648000000     2.490000000
O    -2.875000000    -0.715000000     7.212000000
H    -2.313000000    -1.489000000     7.240000000
H    -2.447000000    -0.132000000     6.584000000
O    -1.798000000    -3.193000000     7.002000000
H    -1.655000000    -4.128000000     7.146000000
H    -1.020000000    -2.901000000     6.528000000
