158
-3018.84455
C    -0.352000000    -0.947000000     1.193000000
H    -0.501000000    -1.496000000     2.119000000
C     0.778000000    -1.118000000     0.337000000
H     1.538000000    -1.849000000     0.601000000
C     1.031000000    -0.131000000    -0.720000000
H     1.994000000    -0.149000000    -1.321000000
C     0.083000000     0.857000000    -0.925000000
H     0.328000000     1.591000000    -1.689000000
C    -0.966000000     1.037000000    -0.093000000
H    -1.612000000     1.907000000    -0.173000000
C    -1.264000000     0.078000000     0.888000000
C    -2.605000000     0.185000000     1.659000000
O    -3.259000000     1.207000000     1.483000000
O    -2.843000000    -0.526000000     2.543000000
O    -2.131000000    -2.745000000    -2.496000000
H    -2.105000000    -1.887000000    -2.921000000
H    -2.604000000    -2.592000000    -1.678000000
O    -7.040000000     3.005000000     3.966000000
H    -6.791000000     2.128000000     3.674000000
H    -7.912000000     3.142000000     3.594000000
O    -1.180000000     2.960000000     5.246000000
H    -0.865000000     2.057000000     5.297000000
H    -1.976000000     2.907000000     4.718000000
O    -5.032000000    -0.429000000    -2.398000000
H    -4.521000000    -0.912000000    -1.749000000
H    -5.327000000    -1.098000000    -3.017000000
O    -3.849000000    -2.306000000    -0.456000000
H    -3.768000000    -2.372000000     0.496000000
H    -4.424000000    -3.032000000    -0.698000000
O    -6.331000000     0.159000000     6.201000000
H    -5.458000000     0.117000000     5.810000000
H    -6.930000000     0.038000000     5.464000000
O     3.578000000    -3.825000000     0.469000000
H     4.174000000    -3.803000000    -0.280000000
H     4.007000000    -3.284000000     1.132000000
O    -4.723000000     2.396000000    -2.710000000
H    -3.885000000     2.492000000    -3.163000000
H    -4.735000000     1.485000000    -2.418000000
O     0.145000000     4.085000000     2.812000000
H     0.931000000     3.548000000     2.706000000
H    -0.404000000     3.589000000     3.419000000
O     0.616000000     4.660000000     0.202000000
H     0.550000000     4.159000000     1.016000000
H     1.307000000     5.300000000     0.371000000
O    -4.928000000    -3.206000000     2.011000000
H    -5.711000000    -2.924000000     2.484000000
H    -4.200000000    -2.951000000     2.579000000
O    -8.529000000     0.236000000     1.313000000
H    -7.590000000     0.396000000     1.409000000
H    -8.699000000     0.366000000     0.380000000
O     2.808000000    -0.687000000     3.567000000
H     2.641000000    -0.885000000     4.489000000
H     3.230000000     0.172000000     3.579000000
O     1.205000000    -5.067000000    -0.063000000
H     0.756000000    -4.629000000    -0.786000000
H     2.026000000    -4.585000000     0.037000000
O     4.706000000     3.921000000    -3.722000000
H     4.120000000     3.480000000    -4.338000000
H     4.257000000     4.739000000    -3.508000000
O    -1.137000000    -1.989000000     6.497000000
H    -1.939000000    -2.211000000     6.023000000
H    -0.548000000    -2.724000000     6.328000000
O     4.061000000     0.512000000    -6.415000000
H     3.277000000     0.995000000    -6.155000000
H     3.944000000     0.350000000    -7.351000000
O    -3.388000000     2.708000000     3.700000000
H    -4.202000000     3.205000000     3.620000000
H    -3.413000000     2.088000000     2.972000000
O    -3.635000000    -5.979000000     2.691000000
H    -2.874000000    -5.409000000     2.792000000
H    -3.291000000    -6.863000000     2.819000000
O     4.748000000    -2.233000000     2.429000000
H     3.956000000    -1.736000000     2.632000000
H     5.465000000    -1.668000000     2.716000000
O    -1.419000000    -4.490000000     3.379000000
H    -1.921000000    -3.767000000     3.756000000
H    -0.508000000    -4.202000000     3.431000000
O     0.062000000    -7.076000000     1.467000000
H    -0.351000000    -7.445000000     0.686000000
H     0.279000000    -6.177000000     1.221000000
O    -3.572000000     5.616000000    -0.989000000
H    -3.864000000     6.527000000    -0.957000000
H    -3.981000000     5.205000000    -0.228000000
O     2.438000000    -5.188000000     3.099000000
H     2.088000000    -4.356000000     3.416000000
H     2.457000000    -5.092000000     2.146000000
O     5.736000000    -3.182000000    -1.014000000
H     6.469000000    -2.712000000    -0.617000000
H     5.526000000    -2.679000000    -1.800000000
O     1.797000000     1.831000000     2.441000000
H     1.223000000     1.116000000     2.164000000
H     2.615000000     1.677000000     1.969000000
O    -5.942000000     0.391000000     2.800000000
H    -6.179000000    -0.466000000     3.155000000
H    -5.137000000     0.232000000     2.308000000
O     7.210000000     1.469000000    -0.250000000
H     6.568000000     2.121000000    -0.531000000
H     7.130000000     0.762000000    -0.891000000
O    -4.753000000     3.035000000     0.392000000
H    -4.004000000     2.610000000     0.810000000
H    -4.729000000     2.726000000    -0.514000000
O    -5.494000000     4.635000000     2.420000000
H    -5.435000000     3.897000000     1.813000000
H    -6.399000000     4.619000000     2.730000000
O     1.770000000    -3.867000000    -4.430000000
H     1.700000000    -3.294000000    -5.193000000
H     2.583000000    -4.353000000    -4.569000000
O     4.395000000     1.424000000     1.300000000
H     5.008000000     2.104000000     1.019000000
H     4.864000000     0.603000000     1.150000000
O     1.602000000    -2.204000000    -6.693000000
H     1.639000000    -1.247000000    -6.695000000
H     2.237000000    -2.470000000    -7.358000000
O     1.848000000     2.804000000    -3.210000000
H     2.251000000     3.612000000    -3.527000000
H     1.667000000     2.974000000    -2.285000000
O    -1.332000000     4.282000000    -1.991000000
H    -0.826000000     4.052000000    -1.212000000
H    -2.136000000     4.672000000    -1.647000000
O    -3.792000000     0.234000000     5.211000000
H    -3.428000000     1.101000000     5.391000000
H    -3.644000000     0.102000000     4.275000000
O    -1.591000000    -0.129000000    -3.006000000
H    -1.822000000     0.739000000    -3.338000000
H    -0.901000000     0.037000000    -2.363000000
O     4.977000000     3.349000000    -0.984000000
H     4.561000000     3.097000000    -1.809000000
H     5.002000000     4.305000000    -1.011000000
O    -1.503000000     6.837000000     1.201000000
H    -1.837000000     7.546000000     0.652000000
H    -0.989000000     6.293000000     0.605000000
O    -3.136000000    -2.333000000     4.355000000
H    -3.787000000    -1.730000000     4.713000000
H    -2.629000000    -1.801000000     3.741000000
O     0.055000000     0.425000000     5.310000000
H     0.730000000     0.650000000     5.950000000
H    -0.063000000    -0.520000000     5.407000000
O     4.143000000    -2.295000000    -3.152000000
H     4.672000000    -2.816000000    -3.757000000
H     3.268000000    -2.680000000    -3.207000000
O     1.296000000     1.704000000    -5.629000000
H     0.710000000     2.421000000    -5.869000000
H     1.449000000     1.823000000    -4.692000000
O    -2.153000000     2.476000000    -4.058000000
H    -2.341000000     2.908000000    -4.890000000
H    -1.557000000     3.074000000    -3.606000000
O     0.757000000    -2.933000000     4.001000000
H     1.402000000    -2.281000000     3.727000000
H     0.882000000    -3.011000000     4.946000000
O     0.646000000    -3.215000000    -2.038000000
H    -0.072000000    -2.583000000    -2.089000000
H     0.866000000    -3.401000000    -2.951000000
O     5.776000000    -0.136000000    -4.118000000
H     5.329000000     0.055000000    -4.943000000
H     5.148000000    -0.663000000    -3.623000000
O    -6.903000000    -1.815000000     3.891000000
H    -7.835000000    -1.996000000     3.764000000
H    -6.769000000    -1.895000000     4.835000000
