158
-3001.67773
C    -0.172000000    -1.246000000     0.684000000
H    -0.161000000    -2.260000000     1.075000000
C     0.607000000    -1.018000000    -0.481000000
H     1.157000000    -1.858000000    -0.898000000
C     0.686000000     0.269000000    -0.958000000
H     1.262000000     0.409000000    -1.840000000
C    -0.010000000     1.300000000    -0.322000000
H     0.020000000     2.318000000    -0.702000000
C    -0.824000000     1.034000000     0.739000000
H    -1.371000000     1.883000000     1.139000000
C    -0.948000000    -0.259000000     1.224000000
C    -1.750000000    -0.510000000     2.471000000
O    -2.603000000     0.253000000     2.787000000
O    -1.650000000    -1.541000000     3.138000000
O     1.765000000    -4.357000000    -2.246000000
H     2.638000000    -3.989000000    -2.109000000
H     1.532000000    -4.094000000    -3.137000000
O    -1.061000000     5.859000000    -2.745000000
H    -1.345000000     6.644000000    -2.277000000
H    -0.919000000     6.155000000    -3.644000000
O    -2.320000000    -1.117000000    -1.928000000
H    -2.560000000    -1.479000000    -2.781000000
H    -1.386000000    -0.921000000    -2.005000000
O     2.537000000     6.247000000    -2.618000000
H     2.401000000     5.324000000    -2.833000000
H     3.144000000     6.562000000    -3.287000000
O     3.933000000    -0.984000000    -7.451000000
H     3.611000000    -0.831000000    -6.563000000
H     4.241000000    -1.890000000    -7.442000000
O    -2.111000000     2.727000000     3.556000000
H    -2.575000000     1.969000000     3.200000000
H    -1.316000000     2.361000000     3.944000000
O    -0.819000000     0.868000000    -3.801000000
H    -1.501000000     0.662000000    -4.439000000
H     0.001000000     0.685000000    -4.259000000
O    -1.625000000    -1.241000000     5.846000000
H    -2.021000000    -1.245000000     4.975000000
H    -1.360000000    -2.149000000     5.993000000
O    -5.792000000     4.244000000     4.046000000
H    -5.359000000     3.453000000     3.725000000
H    -5.253000000     4.963000000     3.716000000
O    -0.710000000    -4.654000000    -1.691000000
H     0.056000000    -4.315000000    -1.228000000
H    -0.549000000    -4.438000000    -2.610000000
O     4.938000000    -1.430000000    -4.063000000
H     5.850000000    -1.596000000    -4.302000000
H     4.893000000    -0.482000000    -3.934000000
O    -2.020000000    -1.753000000     8.465000000
H    -2.219000000    -1.523000000     7.557000000
H    -2.794000000    -2.228000000     8.767000000
O    -1.105000000    -4.351000000     2.866000000
H    -0.992000000    -4.989000000     3.570000000
H    -1.093000000    -3.502000000     3.308000000
O    -3.858000000    -2.817000000     0.178000000
H    -4.687000000    -3.010000000    -0.259000000
H    -3.324000000    -2.395000000    -0.495000000
O    -4.190000000    -2.414000000     3.016000000
H    -3.426000000    -1.984000000     3.403000000
H    -3.967000000    -2.510000000     2.090000000
O    -2.744000000     3.591000000    -4.141000000
H    -2.430000000     4.455000000    -3.876000000
H    -2.687000000     3.061000000    -3.346000000
O     1.712000000    -0.184000000    -4.542000000
H     1.654000000    -1.139000000    -4.571000000
H     2.467000000    -0.007000000    -3.981000000
O    -1.444000000     1.184000000     6.676000000
H    -1.095000000     1.635000000     5.907000000
H    -1.451000000     0.259000000     6.430000000
O     5.541000000     4.262000000    -2.811000000
H     6.057000000     4.559000000    -2.062000000
H     4.665000000     4.113000000    -2.454000000
O     0.508000000     4.317000000    -6.426000000
H     1.171000000     4.961000000    -6.672000000
H     0.717000000     4.091000000    -5.520000000
O     0.276000000     3.682000000    -3.766000000
H    -0.154000000     2.838000000    -3.627000000
H    -0.314000000     4.320000000    -3.363000000
O     3.804000000     0.741000000    -2.797000000
H     4.267000000     0.147000000    -2.207000000
H     3.835000000     1.590000000    -2.356000000
O     0.346000000     2.482000000     4.796000000
H     0.973000000     2.206000000     4.126000000
H     0.576000000     3.393000000     4.978000000
O     4.902000000    -0.719000000    -1.042000000
H     5.350000000    -1.332000000    -0.460000000
H     5.607000000    -0.294000000    -1.531000000
O    -0.362000000    -0.969000000    -7.227000000
H    -0.186000000    -0.033000000    -7.132000000
H     0.500000000    -1.381000000    -7.172000000
O    -5.504000000     2.078000000     0.062000000
H    -4.924000000     1.331000000     0.208000000
H    -5.238000000     2.721000000     0.719000000
O    -1.212000000    -4.119000000    -4.484000000
H    -1.474000000    -4.585000000    -5.277000000
H    -1.517000000    -3.222000000    -4.621000000
O     0.989000000    -5.057000000     1.255000000
H     1.537000000    -4.279000000     1.154000000
H     0.191000000    -4.736000000     1.673000000
O     1.295000000    -1.019000000     4.485000000
H     1.631000000    -0.176000000     4.182000000
H     0.666000000    -1.283000000     3.814000000
O     4.342000000    -3.426000000    -2.057000000
H     5.002000000    -3.364000000    -1.367000000
H     4.479000000    -2.642000000    -2.590000000
O    -4.722000000     0.660000000     4.331000000
H    -5.485000000     0.282000000     3.893000000
H    -4.054000000     0.709000000     3.647000000
O    -4.157000000    -0.044000000     0.790000000
H    -3.560000000     0.044000000     1.533000000
H    -3.654000000    -0.527000000     0.134000000
O    -4.041000000     2.370000000     6.281000000
H    -4.380000000     1.918000000     5.509000000
H    -3.218000000     1.922000000     6.478000000
O     3.012000000     0.863000000     0.533000000
H     2.098000000     0.672000000     0.323000000
H     3.516000000     0.298000000    -0.052000000
O     1.379000000    -3.158000000    -4.913000000
H     1.409000000    -3.187000000    -5.869000000
H     0.607000000    -3.674000000    -4.682000000
O    -6.510000000    -0.176000000     2.271000000
H    -7.250000000     0.352000000     1.971000000
H    -5.924000000    -0.216000000     1.515000000
O     1.755000000     4.691000000     0.630000000
H     1.979000000     5.321000000    -0.055000000
H     0.999000000     5.078000000     1.072000000
O     4.243000000     3.695000000     1.575000000
H     3.709000000     3.026000000     2.005000000
H     3.612000000     4.235000000     1.099000000
O    -2.956000000     1.850000000    -2.070000000
H    -3.830000000     1.464000000    -2.118000000
H    -2.364000000     1.099000000    -2.029000000
O    -3.984000000     3.918000000     1.642000000
H    -4.088000000     4.822000000     1.940000000
H    -3.282000000     3.565000000     2.188000000
O    -0.549000000     6.733000000     1.857000000
H    -0.800000000     5.992000000     2.409000000
H    -1.171000000     7.423000000     2.085000000
O    -0.864000000    -3.904000000     6.380000000
H    -0.646000000    -4.033000000     7.303000000
H    -0.080000000    -4.184000000     5.907000000
O     2.446000000     1.189000000     3.285000000
H     3.319000000     0.989000000     3.623000000
H     2.535000000     1.115000000     2.335000000
O     2.462000000     3.263000000    -1.783000000
H     2.376000000     3.429000000    -0.844000000
H     1.762000000     2.641000000    -1.981000000
O    -3.329000000    -5.520000000     1.566000000
H    -3.502000000    -4.740000000     1.039000000
H    -2.633000000    -5.254000000     2.167000000
O    -2.095000000    -1.725000000    -5.195000000
H    -1.684000000    -1.214000000    -5.892000000
H    -3.023000000    -1.746000000    -5.430000000
O     2.629000000    -2.965000000     1.514000000
H     3.274000000    -2.596000000     2.117000000
H     2.761000000    -2.484000000     0.697000000
O    -3.979000000    -4.333000000     4.966000000
H    -4.321000000    -3.836000000     4.223000000
H    -3.288000000    -3.777000000     5.328000000
