158
-3021.68315
C     0.562000000    -1.329000000    -0.343000000
H     0.836000000    -2.280000000    -0.795000000
C     0.083000000    -0.357000000    -1.244000000
H     0.020000000    -0.653000000    -2.288000000
C    -0.351000000     0.871000000    -0.789000000
H    -0.591000000     1.560000000    -1.599000000
C    -0.374000000     1.195000000     0.589000000
H    -0.768000000     2.182000000     0.815000000
C     0.062000000     0.200000000     1.556000000
H     0.027000000     0.415000000     2.621000000
C     0.593000000    -1.005000000     1.090000000
C     0.828000000    -2.063000000     2.093000000
O     1.364000000    -1.793000000     3.121000000
O     0.759000000    -3.223000000     1.758000000
O    -0.514000000    -3.905000000    -2.493000000
H    -0.930000000    -4.511000000    -3.106000000
H     0.205000000    -3.516000000    -2.992000000
O     1.497000000    -5.180000000    -5.273000000
H     1.254000000    -4.480000000    -4.668000000
H     1.332000000    -4.814000000    -6.142000000
O    -2.310000000    -2.553000000     1.193000000
H    -2.591000000    -2.887000000     0.341000000
H    -1.439000000    -2.189000000     1.032000000
O     4.113000000    -6.288000000    -0.552000000
H     4.667000000    -5.532000000    -0.358000000
H     3.265000000    -6.069000000    -0.167000000
O     1.873000000     4.456000000     0.919000000
H     0.977000000     4.641000000     1.199000000
H     2.211000000     3.852000000     1.580000000
O    -4.079000000     3.353000000     2.821000000
H    -3.833000000     3.590000000     3.715000000
H    -3.407000000     2.729000000     2.546000000
O     3.141000000     1.457000000    -1.033000000
H     3.251000000     2.383000000    -1.248000000
H     2.589000000     1.456000000    -0.250000000
O     2.888000000    -0.185000000    -3.275000000
H     3.724000000     0.235000000    -3.479000000
H     2.559000000     0.293000000    -2.514000000
O     1.363000000     2.318000000     4.150000000
H     1.838000000     2.453000000     3.330000000
H     2.007000000     1.924000000     4.738000000
O    -1.155000000     1.833000000     5.322000000
H    -0.287000000     1.727000000     4.933000000
H    -1.722000000     1.267000000     4.799000000
O    -2.831000000    -2.296000000    -1.946000000
H    -2.108000000    -2.922000000    -1.986000000
H    -3.400000000    -2.541000000    -2.675000000
O    -3.358000000     4.087000000    -3.860000000
H    -3.660000000     3.704000000    -3.037000000
H    -2.414000000     3.925000000    -3.868000000
O    -3.088000000     0.510000000     3.870000000
H    -3.579000000     0.017000000     3.213000000
H    -2.989000000    -0.100000000     4.602000000
O    -1.676000000     5.634000000    -5.391000000
H    -1.689000000     6.575000000    -5.218000000
H    -2.246000000     5.258000000    -4.720000000
O     1.941000000    -7.038000000     3.122000000
H     2.466000000    -7.828000000     3.252000000
H     1.721000000    -6.748000000     4.007000000
O    -2.740000000    -5.131000000     1.867000000
H    -2.129000000    -5.546000000     1.258000000
H    -2.684000000    -4.197000000     1.664000000
O    -0.537000000     3.738000000    -3.312000000
H    -0.464000000     2.833000000    -3.614000000
H     0.148000000     4.206000000    -3.790000000
O    -5.739000000     0.077000000    -1.124000000
H    -4.985000000     0.309000000    -1.666000000
H    -6.486000000     0.120000000    -1.721000000
O    -2.961000000    -1.683000000     5.275000000
H    -2.022000000    -1.597000000     5.113000000
H    -3.062000000    -2.561000000     5.643000000
O     5.022000000    -2.167000000     4.870000000
H     4.071000000    -2.271000000     4.837000000
H     5.350000000    -2.740000000     4.177000000
O    -4.080000000     2.857000000    -1.061000000
H    -3.626000000     2.017000000    -1.121000000
H    -4.917000000     2.648000000    -0.646000000
O     4.562000000    -3.490000000    -1.374000000
H     4.966000000    -3.180000000    -2.184000000
H     3.649000000    -3.654000000    -1.608000000
O     2.911000000     4.138000000    -1.456000000
H     2.999000000     4.956000000    -1.945000000
H     2.401000000     4.376000000    -0.681000000
O     5.805000000    -4.075000000     2.897000000
H     5.980000000    -3.279000000     2.395000000
H     4.861000000    -4.211000000     2.809000000
O    -2.946000000     0.265000000    -2.130000000
H    -2.802000000    -0.651000000    -1.892000000
H    -2.505000000     0.366000000    -2.973000000
O     2.975000000    -4.288000000     3.239000000
H     2.287000000    -3.660000000     3.017000000
H     2.801000000    -5.042000000     2.676000000
O     2.422000000    -2.091000000     5.377000000
H     2.535000000    -1.230000000     5.780000000
H     2.000000000    -1.909000000     4.537000000
O    -4.555000000    -0.768000000     2.042000000
H    -4.574000000    -1.714000000     2.185000000
H    -4.343000000    -0.671000000     1.113000000
O     0.658000000    -6.684000000    -2.800000000
H     0.795000000    -6.487000000    -3.726000000
H     0.179000000    -5.927000000    -2.462000000
O     3.150000000     2.363000000     1.985000000
H     4.044000000     2.558000000     1.705000000
H     3.158000000     1.425000000     2.176000000
O     2.639000000     3.202000000    -4.199000000
H     3.056000000     4.017000000    -4.481000000
H     2.886000000     3.113000000    -3.279000000
O    -2.465000000    -4.377000000     5.635000000
H    -2.911000000    -5.206000000     5.806000000
H    -1.968000000    -4.534000000     4.832000000
O    -4.386000000     5.517000000    -0.438000000
H    -3.549000000     5.961000000    -0.574000000
H    -4.187000000     4.589000000    -0.558000000
O    -0.571000000    -4.794000000     3.556000000
H    -0.125000000    -4.244000000     2.911000000
H    -1.303000000    -5.180000000     3.075000000
O     1.602000000     0.689000000     6.745000000
H     1.043000000     1.209000000     7.322000000
H     2.400000000     1.210000000     6.651000000
O    -4.495000000    -0.402000000    -5.442000000
H    -5.440000000    -0.402000000    -5.592000000
H    -4.228000000     0.504000000    -5.596000000
O     1.410000000     0.388000000    -5.489000000
H     1.861000000     0.450000000    -4.647000000
H     2.099000000     0.521000000    -6.140000000
O     1.976000000    -4.184000000     7.219000000
H     2.108000000    -3.430000000     6.645000000
H     1.305000000    -4.706000000     6.779000000
O    -0.622000000     4.583000000     1.926000000
H    -1.561000000     4.627000000     1.747000000
H    -0.559000000     4.623000000     2.881000000
O     3.564000000    -0.441000000     2.290000000
H     3.995000000    -0.985000000     1.631000000
H     2.941000000    -1.030000000     2.716000000
O     5.339000000    -1.936000000     0.791000000
H     5.060000000    -2.270000000    -0.061000000
H     6.211000000    -1.574000000     0.632000000
O    -6.259000000     2.525000000    -3.407000000
H    -7.006000000     3.065000000    -3.665000000
H    -6.073000000     2.789000000    -2.505000000
O    -0.253000000    -0.866000000     5.261000000
H     0.515000000    -0.708000000     5.811000000
H     0.110000000    -1.099000000     4.406000000
O     1.314000000    -2.255000000    -4.247000000
H     1.745000000    -1.673000000    -3.621000000
H     1.889000000    -2.253000000    -5.012000000
O     2.024000000    -5.284000000     0.632000000
H     1.650000000    -4.457000000     0.936000000
H     1.610000000    -5.951000000     1.179000000
O    -1.236000000     0.592000000    -4.693000000
H    -1.442000000     0.315000000    -5.586000000
H    -0.287000000     0.488000000    -4.623000000
O     0.519000000    -5.796000000     5.736000000
H    -0.025000000    -6.582000000     5.779000000
H     0.225000000    -5.344000000     4.946000000
O    -1.742000000     6.614000000    -1.018000000
H    -1.096000000     7.175000000    -0.589000000
H    -1.268000000     6.218000000    -1.749000000
