158
-3048.07085
C    -0.582000000    -0.770000000     1.122000000
H    -0.972000000    -1.470000000     1.856000000
C    -0.320000000    -1.251000000    -0.121000000
H    -0.545000000    -2.276000000    -0.404000000
C     0.172000000    -0.389000000    -1.125000000
H     0.254000000    -0.788000000    -2.175000000
C     0.513000000     0.918000000    -0.818000000
H     1.085000000     1.529000000    -1.511000000
C     0.174000000     1.438000000     0.425000000
H     0.542000000     2.422000000     0.707000000
C    -0.436000000     0.635000000     1.415000000
C    -0.608000000     1.037000000     2.835000000
O    -0.095000000     2.032000000     3.236000000
O    -1.197000000     0.318000000     3.625000000
O    -0.431000000     0.567000000    -6.143000000
H     0.499000000     0.600000000    -5.921000000
H    -0.845000000     1.178000000    -5.533000000
O    -4.358000000    -0.135000000     1.072000000
H    -3.882000000     0.231000000     0.326000000
H    -5.214000000    -0.373000000     0.716000000
O     2.456000000     0.520000000    -6.409000000
H     3.012000000     1.100000000    -5.889000000
H     2.541000000    -0.335000000    -5.987000000
O     3.692000000    -3.560000000    -0.259000000
H     3.408000000    -2.668000000    -0.458000000
H     2.885000000    -4.027000000    -0.045000000
O     4.924000000     4.714000000    -2.372000000
H     5.373000000     4.768000000    -3.216000000
H     5.231000000     3.891000000    -1.990000000
O    -2.238000000    -0.649000000    -7.791000000
H    -1.764000000    -0.652000000    -8.622000000
H    -1.582000000    -0.394000000    -7.142000000
O     2.734000000    -1.646000000    -4.835000000
H     3.090000000    -2.529000000    -4.729000000
H     2.845000000    -1.238000000    -3.977000000
O    -1.877000000     3.740000000    -1.763000000
H    -1.741000000     3.748000000    -0.816000000
H    -1.292000000     4.422000000    -2.095000000
O     1.111000000    -5.111000000    -0.010000000
H     1.304000000    -5.391000000    -0.905000000
H     0.193000000    -4.841000000    -0.037000000
O    -1.246000000     6.603000000    -1.222000000
H    -0.591000000     7.190000000    -0.843000000
H    -1.369000000     5.922000000    -0.560000000
O     1.954000000    -1.971000000    -8.078000000
H     1.478000000    -1.736000000    -7.281000000
H     1.351000000    -1.755000000    -8.790000000
O     3.422000000     2.191000000    -2.469000000
H     3.657000000     2.347000000    -1.554000000
H     3.317000000     1.241000000    -2.531000000
O     1.440000000     3.221000000    -4.114000000
H     2.257000000     2.882000000    -3.749000000
H     1.654000000     4.110000000    -4.396000000
O    -1.169000000    -2.141000000    -4.848000000
H    -1.957000000    -1.687000000    -4.551000000
H    -0.661000000    -1.467000000    -5.301000000
O     4.330000000     1.768000000    -5.008000000
H     3.936000000     1.885000000    -4.143000000
H     4.187000000     2.605000000    -5.451000000
O    -1.676000000    -5.302000000     0.741000000
H    -2.297000000    -4.772000000     1.240000000
H    -1.137000000    -5.730000000     1.406000000
O     2.177000000     4.760000000     7.203000000
H     1.654000000     4.880000000     7.996000000
H     1.804000000     3.984000000     6.785000000
O    -1.120000000     5.598000000     5.480000000
H    -1.095000000     5.430000000     4.538000000
H    -0.882000000     4.761000000     5.879000000
O    -4.280000000     0.288000000     6.731000000
H    -4.316000000    -0.400000000     6.067000000
H    -3.536000000     0.832000000     6.474000000
O    -1.148000000     1.784000000    -3.649000000
H    -0.215000000     1.728000000    -3.441000000
H    -1.507000000     2.370000000    -2.983000000
O     3.505000000     3.317000000     0.949000000
H     4.275000000     2.789000000     0.735000000
H     3.111000000     2.872000000     1.700000000
O     2.730000000     6.523000000    -1.691000000
H     2.554000000     6.344000000    -0.768000000
H     3.467000000     5.954000000    -1.910000000
O     3.526000000    -1.441000000     2.604000000
H     3.056000000    -0.855000000     3.198000000
H     3.912000000    -2.104000000     3.178000000
O    -3.013000000    -0.532000000    -3.683000000
H    -3.818000000    -0.155000000    -4.038000000
H    -2.459000000     0.224000000    -3.489000000
O     0.894000000     2.499000000     6.053000000
H     0.299000000     2.298000000     5.331000000
H     0.358000000     2.986000000     6.678000000
O     3.663000000    -0.518000000    -2.580000000
H     4.618000000    -0.554000000    -2.522000000
H     3.359000000    -0.975000000    -1.795000000
O    -3.597000000     3.611000000     2.527000000
H    -4.151000000     4.101000000     3.134000000
H    -3.740000000     2.694000000     2.760000000
O    -3.771000000    -3.004000000    -1.657000000
H    -3.602000000    -2.146000000    -2.047000000
H    -4.067000000    -2.808000000    -0.768000000
O    -2.104000000    -5.335000000    -2.104000000
H    -2.848000000    -4.736000000    -2.170000000
H    -1.914000000    -5.377000000    -1.167000000
O     2.562000000     5.308000000     4.285000000
H     2.648000000     5.664000000     5.169000000
H     3.367000000     4.810000000     4.147000000
O     2.191000000     5.677000000     0.880000000
H     1.478000000     5.230000000     1.336000000
H     2.787000000     4.975000000     0.619000000
O    -0.971000000    -1.987000000     4.717000000
H    -0.944000000    -1.122000000     4.308000000
H    -0.389000000    -1.912000000     5.474000000
O    -0.250000000    -4.511000000     3.556000000
H    -0.751000000    -3.733000000     3.799000000
H    -0.231000000    -5.042000000     4.353000000
O     0.484000000     4.503000000     2.767000000
H     1.229000000     4.747000000     3.316000000
H     0.237000000     3.630000000     3.072000000
O    -1.926000000     1.488000000     5.937000000
H    -1.776000000     1.184000000     5.042000000
H    -1.653000000     0.755000000     6.488000000
O    -0.319000000    -4.591000000    -5.320000000
H    -0.552000000    -3.666000000    -5.244000000
H    -0.033000000    -4.840000000    -4.441000000
O    -1.383000000    -0.354000000     7.758000000
H    -2.019000000    -0.597000000     8.430000000
H    -0.734000000     0.174000000     8.223000000
O     2.517000000     1.542000000     3.299000000
H     2.432000000     0.899000000     4.002000000
H     1.618000000     1.816000000     3.115000000
O     4.753000000     3.638000000     3.786000000
H     4.232000000     2.861000000     3.987000000
H     5.386000000     3.341000000     3.133000000
O    -1.393000000     4.555000000     0.758000000
H    -0.705000000     4.647000000     1.418000000
H    -2.074000000     4.041000000     1.192000000
O     4.815000000     1.087000000     0.020000000
H     4.216000000     0.586000000    -0.534000000
H     5.683000000     0.746000000    -0.197000000
O    -3.823000000     1.058000000     3.252000000
H    -2.894000000     0.845000000     3.344000000
H    -4.144000000     0.448000000     2.588000000
O    -3.657000000    -3.273000000     1.201000000
H    -3.806000000    -2.482000000     1.718000000
H    -4.534000000    -3.565000000     0.951000000
O     2.018000000    -0.244000000     5.355000000
H     1.912000000     0.295000000     6.139000000
H     2.265000000    -1.106000000     5.688000000
O    -2.802000000     0.786000000    -0.958000000
H    -2.133000000     0.131000000    -1.154000000
H    -2.503000000     1.577000000    -1.406000000
O     2.826000000    -4.709000000     3.769000000
H     2.071000000    -4.352000000     3.301000000
H     2.451000000    -5.344000000     4.379000000
O    -4.113000000    -2.331000000     4.959000000
H    -3.180000000    -2.190000000     4.798000000
H    -4.140000000    -2.984000000     5.658000000
O     2.778000000    -1.109000000     0.157000000
H     1.831000000    -0.996000000     0.234000000
H     3.087000000    -1.168000000     1.061000000
