158
-3038.16025
C    -1.000000000    -0.438000000     0.922000000
H    -1.730000000    -0.852000000     1.613000000
C    -0.476000000    -1.203000000    -0.121000000
H    -0.828000000    -2.208000000    -0.343000000
C     0.481000000    -0.681000000    -0.992000000
H     0.985000000    -1.324000000    -1.821000000
C     0.909000000     0.627000000    -0.699000000
H     1.614000000     1.179000000    -1.315000000
C     0.342000000     1.423000000     0.315000000
H     0.726000000     2.428000000     0.476000000
C    -0.686000000     0.887000000     1.113000000
C    -1.341000000     1.739000000     2.153000000
O    -1.034000000     2.887000000     2.366000000
O    -2.014000000     1.153000000     2.980000000
O    -3.694000000    -3.173000000     2.906000000
H    -3.373000000    -4.074000000     2.884000000
H    -4.041000000    -3.021000000     2.027000000
O     2.774000000    -4.978000000    -5.094000000
H     2.606000000    -4.382000000    -4.365000000
H     1.908000000    -5.303000000    -5.342000000
O     0.139000000     0.856000000    -4.618000000
H     0.979000000     1.311000000    -4.560000000
H     0.358000000    -0.068000000    -4.500000000
O     4.268000000    -2.513000000     0.757000000
H     3.674000000    -3.209000000     0.477000000
H     3.690000000    -1.809000000     1.050000000
O     3.639000000     3.641000000    -2.351000000
H     3.711000000     2.925000000    -1.720000000
H     4.531000000     3.763000000    -2.677000000
O     1.003000000    -1.885000000    -4.530000000
H     1.615000000    -2.337000000    -3.948000000
H     0.191000000    -2.386000000    -4.459000000
O    -1.279000000    -3.274000000    -4.320000000
H    -1.535000000    -3.685000000    -3.494000000
H    -1.949000000    -3.554000000    -4.944000000
O     0.026000000    -4.423000000     1.773000000
H    -0.635000000    -5.064000000     2.035000000
H     0.064000000    -3.806000000     2.503000000
O    -3.433000000     1.131000000    -0.540000000
H    -2.838000000     1.880000000    -0.549000000
H    -4.095000000     1.358000000     0.113000000
O     2.796000000    -3.152000000    -2.707000000
H     3.654000000    -2.727000000    -2.725000000
H     2.729000000    -3.518000000    -1.824000000
O     2.053000000    -4.633000000    -0.030000000
H     2.347000000    -5.444000000     0.385000000
H     1.291000000    -4.364000000     0.482000000
O     5.629000000    -2.023000000    -2.896000000
H     5.581000000    -1.302000000    -3.523000000
H     5.985000000    -2.755000000    -3.398000000
O    -1.069000000    -6.414000000    -0.394000000
H    -0.682000000    -7.263000000    -0.606000000
H    -0.576000000    -6.110000000     0.369000000
O    -0.417000000     5.597000000     6.067000000
H    -1.302000000     5.740000000     6.403000000
H    -0.450000000     4.727000000     5.669000000
O    -2.964000000     4.928000000     2.972000000
H    -3.020000000     5.682000000     2.385000000
H    -2.497000000     4.264000000     2.465000000
O     2.004000000     1.476000000    -7.178000000
H     2.172000000     0.565000000    -6.937000000
H     2.370000000     1.986000000    -6.454000000
O    -4.227000000    -1.233000000     0.637000000
H    -3.378000000    -0.792000000     0.601000000
H    -4.085000000    -2.062000000     0.179000000
O    -6.727000000     0.962000000     5.214000000
H    -5.865000000     1.360000000     5.093000000
H    -6.731000000     0.213000000     4.617000000
O    -2.206000000    -0.407000000    -5.575000000
H    -1.649000000     0.258000000    -5.170000000
H    -2.193000000    -1.138000000    -4.957000000
O     4.073000000    -5.088000000     2.379000000
H     3.388000000    -5.080000000     3.047000000
H     3.815000000    -4.402000000     1.763000000
O     2.397000000     2.988000000    -4.784000000
H     2.921000000     3.235000000    -4.022000000
H     2.414000000     3.762000000    -5.348000000
O     2.824000000     2.105000000     2.006000000
H     3.261000000     1.760000000     1.228000000
H     2.217000000     1.413000000     2.267000000
O     2.143000000     5.965000000    -1.828000000
H     1.316000000     5.981000000    -2.310000000
H     2.599000000     5.191000000    -2.159000000
O     0.530000000    -2.356000000     3.508000000
H    -0.213000000    -1.789000000     3.716000000
H     0.873000000    -2.622000000     4.361000000
O    -3.506000000    -0.523000000    -2.667000000
H    -2.639000000    -0.894000000    -2.832000000
H    -3.397000000    -0.005000000    -1.869000000
O    -3.552000000     1.388000000     5.002000000
H    -3.082000000     1.373000000     4.168000000
H    -3.532000000     2.306000000     5.272000000
O    -3.883000000     4.140000000     5.402000000
H    -3.424000000     4.430000000     4.614000000
H    -3.497000000     4.657000000     6.109000000
O     5.860000000    -5.513000000    -1.898000000
H     5.412000000    -4.938000000    -1.278000000
H     6.413000000    -4.926000000    -2.413000000
O    -5.199000000     2.726000000     0.792000000
H    -5.248000000     3.331000000     1.532000000
H    -5.680000000     1.951000000     1.083000000
O    -3.841000000    -4.239000000     0.312000000
H    -3.287000000    -4.921000000     0.693000000
H    -4.724000000    -4.610000000     0.330000000
O    -2.388000000    -4.479000000    -2.126000000
H    -3.129000000    -4.185000000    -1.596000000
H    -1.719000000    -4.725000000    -1.487000000
O    -0.989000000     8.084000000     3.705000000
H    -0.751000000     7.257000000     3.284000000
H    -0.209000000     8.631000000     3.616000000
O     5.468000000     1.788000000    -1.927000000
H     4.970000000     1.207000000    -1.353000000
H     5.991000000     1.197000000    -2.470000000
O     3.166000000     5.038000000     1.832000000
H     2.378000000     5.404000000     1.431000000
H     2.939000000     4.127000000     2.019000000
O    -1.190000000    -0.486000000     4.849000000
H    -1.323000000     0.175000000     4.169000000
H    -1.565000000    -0.095000000     5.638000000
O    -2.585000000    -2.749000000     5.760000000
H    -3.109000000    -2.964000000     4.988000000
H    -1.983000000    -2.068000000     5.459000000
O     0.390000000     5.499000000     2.802000000
H     1.117000000     5.218000000     3.359000000
H    -0.216000000     4.758000000     2.808000000
O     0.189000000    -5.756000000    -5.369000000
H    -0.279000000    -5.021000000    -5.765000000
H    -0.477000000    -6.219000000    -4.861000000
O    -0.492000000     3.075000000     5.028000000
H    -0.183000000     2.226000000     5.343000000
H    -0.737000000     2.918000000     4.116000000
O    -0.464000000     5.646000000     0.068000000
H    -0.157000000     6.261000000    -0.597000000
H    -0.060000000     5.952000000     0.881000000
O     5.031000000     0.223000000     0.404000000
H     4.964000000    -0.718000000     0.565000000
H     5.970000000     0.386000000     0.323000000
O    -6.359000000     0.195000000     1.914000000
H    -5.613000000    -0.392000000     1.788000000
H    -7.120000000    -0.328000000     1.660000000
O     2.708000000    -1.297000000    -6.288000000
H     2.026000000    -1.520000000    -5.653000000
H     2.373000000    -1.624000000    -7.123000000
O    -5.898000000     4.236000000     3.097000000
H    -6.409000000     3.967000000     3.861000000
H    -5.027000000     4.424000000     3.446000000
O     5.362000000    -0.608000000    -5.476000000
H     4.427000000    -0.744000000    -5.632000000
H     5.776000000    -0.801000000    -6.317000000
O    -1.737000000     3.134000000    -1.310000000
H    -0.935000000     2.631000000    -1.450000000
H    -1.477000000     3.841000000    -0.720000000
O    -4.864000000    -1.213000000     4.544000000
H    -4.465000000    -1.702000000     3.824000000
H    -4.334000000    -0.419000000     4.616000000
O     2.349000000    -0.767000000     2.061000000
H     1.622000000    -0.654000000     1.449000000
H     1.930000000    -1.004000000     2.889000000
