158
-3029.50395
C    -0.805000000    -0.692000000     1.085000000
H    -1.441000000    -1.316000000     1.706000000
C    -0.447000000    -1.233000000    -0.188000000
H    -0.831000000    -2.196000000    -0.514000000
C     0.341000000    -0.491000000    -1.066000000
H     0.537000000    -0.929000000    -2.067000000
C     0.736000000     0.766000000    -0.752000000
H     1.356000000     1.397000000    -1.384000000
C     0.237000000     1.381000000     0.425000000
H     0.638000000     2.359000000     0.681000000
C    -0.548000000     0.664000000     1.331000000
C    -0.951000000     1.296000000     2.634000000
O    -0.666000000     2.448000000     2.903000000
O    -1.408000000     0.602000000     3.539000000
O    -2.255000000     2.400000000    -1.519000000
H    -1.573000000     3.063000000    -1.620000000
H    -2.026000000     1.720000000    -2.153000000
O    -5.146000000    -3.281000000     3.628000000
H    -4.341000000    -3.791000000     3.717000000
H    -4.854000000    -2.424000000     3.320000000
O    -1.219000000     0.520000000    -3.528000000
H    -1.020000000    -0.036000000    -2.775000000
H    -0.388000000     0.945000000    -3.739000000
O     2.775000000    -2.781000000    -1.088000000
H     2.764000000    -3.715000000    -0.877000000
H     2.374000000    -2.359000000    -0.329000000
O     3.440000000     0.997000000     2.699000000
H     3.075000000     1.837000000     2.977000000
H     2.676000000     0.438000000     2.557000000
O    -4.987000000    -2.168000000    -2.912000000
H    -4.807000000    -3.020000000    -3.311000000
H    -4.394000000    -2.125000000    -2.162000000
O     1.527000000    -1.760000000    -4.725000000
H     2.371000000    -1.794000000    -4.276000000
H     0.885000000    -1.961000000    -4.044000000
O    -0.874000000    -3.205000000    -3.305000000
H    -0.955000000    -3.516000000    -2.404000000
H    -1.588000000    -3.638000000    -3.773000000
O    -3.474000000     5.259000000     0.754000000
H    -2.670000000     4.780000000     0.951000000
H    -4.173000000     4.617000000     0.880000000
O     0.010000000    -5.778000000     1.635000000
H    -0.264000000    -5.213000000     2.358000000
H    -0.497000000    -6.581000000     1.753000000
O    -3.523000000     0.965000000     0.706000000
H    -3.304000000     1.348000000    -0.143000000
H    -3.322000000     1.655000000     1.339000000
O    -0.014000000     5.461000000    -3.916000000
H    -0.919000000     5.774000000    -3.895000000
H     0.153000000     5.151000000    -3.026000000
O     3.750000000    -1.147000000    -3.031000000
H     3.783000000    -0.250000000    -2.699000000
H     3.267000000    -1.632000000    -2.362000000
O    -0.960000000     0.593000000    -7.379000000
H    -0.174000000     0.100000000    -7.615000000
H    -1.286000000     0.160000000    -6.590000000
O     2.660000000    -5.600000000    -0.147000000
H     2.620000000    -6.012000000    -1.010000000
H     1.878000000    -5.917000000     0.306000000
O    -2.960000000    -4.726000000     3.634000000
H    -3.135000000    -5.659000000     3.752000000
H    -2.253000000    -4.535000000     4.250000000
O    -0.248000000     4.435000000     6.419000000
H    -0.802000000     5.212000000     6.500000000
H    -0.859000000     3.724000000     6.227000000
O    -0.673000000     4.998000000     2.036000000
H     0.149000000     4.860000000     1.566000000
H    -0.865000000     4.149000000     2.436000000
O     3.549000000    -4.926000000    -5.025000000
H     2.594000000    -4.868000000    -4.990000000
H     3.817000000    -4.167000000    -5.543000000
O    -3.567000000    -0.921000000     3.834000000
H    -2.819000000    -0.354000000     3.646000000
H    -4.260000000    -0.321000000     4.108000000
O    -3.750000000     0.413000000    -4.321000000
H    -2.901000000     0.491000000    -3.887000000
H    -3.919000000    -0.529000000    -4.348000000
O    -3.391000000    -2.437000000    -5.744000000
H    -2.546000000    -2.471000000    -6.191000000
H    -3.280000000    -3.000000000    -4.978000000
O     3.801000000     5.549000000     3.032000000
H     4.364000000     5.448000000     2.264000000
H     3.210000000     4.797000000     2.996000000
O     5.120000000    -1.202000000     0.979000000
H     4.164000000    -1.210000000     0.953000000
H     5.358000000    -0.298000000     0.774000000
O     3.143000000     4.442000000    -3.683000000
H     2.793000000     3.564000000    -3.835000000
H     4.086000000     4.310000000    -3.582000000
O     0.146000000    -4.421000000     4.061000000
H    -0.330000000    -3.605000000     3.908000000
H     0.787000000    -4.201000000     4.737000000
O    -3.881000000    -1.759000000    -0.398000000
H    -3.658000000    -2.519000000     0.139000000
H    -3.726000000    -1.008000000     0.175000000
O    -2.305000000     2.520000000     5.532000000
H    -1.941000000     2.148000000     4.728000000
H    -2.853000000     3.245000000     5.233000000
O    -3.199000000     4.877000000     4.711000000
H    -3.164000000     5.443000000     3.940000000
H    -2.947000000     5.446000000     5.438000000
O    -4.159000000     2.810000000     2.727000000
H    -3.758000000     3.563000000     3.162000000
H    -4.916000000     2.595000000     3.271000000
O    -3.314000000    -4.060000000     1.005000000
H    -3.340000000    -4.216000000     1.949000000
H    -4.081000000    -4.519000000     0.664000000
O    -1.088000000    -4.980000000    -0.707000000
H    -1.969000000    -4.854000000    -0.356000000
H    -0.518000000    -4.957000000     0.061000000
O     1.052000000     6.333000000     4.419000000
H     0.462000000     5.881000000     5.022000000
H     0.956000000     5.862000000     3.592000000
O     3.805000000     3.175000000     0.170000000
H     4.000000000     2.523000000    -0.504000000
H     4.551000000     3.133000000     0.768000000
O    -0.539000000    -1.840000000     4.519000000
H    -1.040000000    -1.134000000     4.112000000
H     0.062000000    -1.394000000     5.115000000
O    -3.147000000    -1.943000000     6.317000000
H    -2.979000000    -1.756000000     5.393000000
H    -2.573000000    -1.341000000     6.791000000
O     2.054000000     3.238000000     3.516000000
H     1.894000000     3.070000000     4.445000000
H     1.223000000     3.033000000     3.088000000
O    -1.717000000     0.160000000     7.779000000
H    -2.640000000     0.195000000     8.028000000
H    -1.252000000     0.523000000     8.532000000
O     1.102000000    -5.552000000    -3.246000000
H     0.835000000    -4.759000000    -2.782000000
H     0.466000000    -6.214000000    -2.976000000
O     0.604000000     1.450000000     5.641000000
H     0.183000000     0.714000000     6.086000000
H     0.091000000     1.570000000     4.841000000
O     1.753000000     5.052000000     0.575000000
H     2.131000000     5.749000000     0.039000000
H     2.448000000     4.398000000     0.643000000
O     4.874000000     1.374000000    -1.694000000
H     5.567000000     1.218000000    -1.052000000
H     5.262000000     1.985000000    -2.320000000
O     1.400000000    -3.188000000    -6.956000000
H     1.504000000    -2.576000000    -6.227000000
H     2.291000000    -3.343000000    -7.268000000
O     1.188000000     2.364000000    -4.239000000
H     1.830000000     1.812000000    -4.685000000
H     1.044000000     3.097000000    -4.837000000
O     6.603000000    -1.242000000    -4.297000000
H     5.670000000    -1.134000000    -4.111000000
H     6.644000000    -2.000000000    -4.880000000
O    -0.256000000     4.498000000    -1.164000000
H    -0.629000000     5.378000000    -1.205000000
H     0.376000000     4.539000000    -0.447000000
O    -4.190000000     1.040000000     6.649000000
H    -4.786000000     1.658000000     6.227000000
H    -3.358000000     1.159000000     6.191000000
O     2.225000000    -1.700000000     1.487000000
H     1.278000000    -1.723000000     1.625000000
H     2.594000000    -2.020000000     2.310000000
