158
-3070.38823
C    -1.166000000    -0.008000000     0.917000000
H    -2.001000000    -0.299000000     1.550000000
C    -1.136000000    -0.478000000    -0.392000000
H    -2.022000000    -0.899000000    -0.860000000
C    -0.010000000    -0.292000000    -1.228000000
H    -0.056000000    -0.688000000    -2.240000000
C     1.135000000     0.372000000    -0.673000000
H     1.969000000     0.439000000    -1.367000000
C     1.141000000     0.811000000     0.638000000
H     2.013000000     1.265000000     1.100000000
C    -0.012000000     0.584000000     1.446000000
C     0.051000000     0.793000000     2.953000000
O     1.078000000     1.008000000     3.573000000
O    -0.969000000     0.747000000     3.603000000
O     1.087000000     3.263000000    -2.203000000
H     0.868000000     2.630000000    -1.519000000
H     1.248000000     2.728000000    -2.980000000
O    -0.862000000    -1.935000000     7.857000000
H    -1.756000000    -2.272000000     7.922000000
H    -0.941000000    -1.153000000     7.310000000
O    -1.551000000     2.355000000    -4.865000000
H    -0.671000000     2.084000000    -4.603000000
H    -1.853000000     2.914000000    -4.149000000
O     3.616000000    -2.895000000    -1.196000000
H     2.856000000    -3.074000000    -0.642000000
H     3.278000000    -2.946000000    -2.090000000
O     4.463000000    -0.664000000     0.281000000
H     4.194000000    -1.411000000    -0.254000000
H     4.127000000    -0.862000000     1.155000000
O    -6.239000000    -3.911000000    -2.088000000
H    -5.800000000    -3.801000000    -2.931000000
H    -5.651000000    -3.497000000    -1.456000000
O     3.679000000     2.496000000    -3.868000000
H     3.296000000     3.369000000    -3.780000000
H     4.473000000     2.527000000    -3.335000000
O    -0.951000000    -1.376000000    -6.254000000
H    -1.650000000    -2.020000000    -6.141000000
H    -1.404000000    -0.577000000    -6.522000000
O    -4.978000000    -4.027000000     2.280000000
H    -5.141000000    -3.128000000     2.564000000
H    -5.783000000    -4.497000000     2.497000000
O    -5.907000000    -0.522000000    -1.337000000
H    -5.621000000    -1.349000000    -0.949000000
H    -5.738000000     0.131000000    -0.658000000
O    -4.447000000     1.937000000     0.328000000
H    -5.312000000     2.342000000     0.263000000
H    -3.917000000     2.578000000     0.802000000
O    -5.082000000     2.683000000    -2.834000000
H    -5.396000000     2.549000000    -1.940000000
H    -4.157000000     2.438000000    -2.802000000
O     3.206000000    -2.655000000     4.931000000
H     3.437000000    -1.964000000     4.311000000
H     2.527000000    -2.266000000     5.482000000
O    -5.782000000    -1.412000000     2.828000000
H    -6.587000000    -1.020000000     2.491000000
H    -5.193000000    -0.670000000     2.965000000
O    -3.224000000     4.122000000     1.724000000
H    -2.356000000     3.742000000     1.591000000
H    -3.165000000     4.565000000     2.570000000
O    -3.495000000    -0.182000000     4.087000000
H    -2.761000000     0.374000000     3.828000000
H    -3.085000000    -0.965000000     4.453000000
O     1.716000000     1.323000000     8.686000000
H     1.481000000     1.695000000     7.836000000
H     2.362000000     0.647000000     8.481000000
O    -4.895000000     0.173000000    -6.113000000
H    -4.740000000    -0.257000000    -5.272000000
H    -5.187000000     1.054000000    -5.881000000
O     3.970000000     0.030000000     7.024000000
H     3.705000000    -0.123000000     6.117000000
H     4.761000000     0.565000000     6.956000000
O    -3.823000000     4.737000000     4.743000000
H    -3.515000000     5.327000000     5.430000000
H    -3.281000000     3.953000000     4.840000000
O     0.931000000    -1.595000000     5.930000000
H     0.649000000    -0.698000000     5.755000000
H     0.400000000    -1.872000000     6.677000000
O     3.534000000     1.594000000    -6.509000000
H     3.903000000     0.717000000    -6.407000000
H     3.553000000     1.965000000    -5.626000000
O     1.223000000     1.148000000    -4.088000000
H     1.155000000     0.288000000    -4.503000000
H     2.146000000     1.385000000    -4.177000000
O     2.902000000     5.184000000    -2.750000000
H     2.175000000     4.587000000    -2.572000000
H     2.609000000     5.699000000    -3.502000000
O     3.619000000    -0.343000000     3.096000000
H     2.780000000     0.117000000     3.116000000
H     4.274000000     0.354000000     3.074000000
O    -4.795000000    -2.502000000    -0.104000000
H    -4.940000000    -2.950000000     0.729000000
H    -3.916000000    -2.772000000    -0.371000000
O    -1.855000000     3.026000000     5.020000000
H    -1.704000000     2.307000000     4.406000000
H    -1.051000000     3.074000000     5.536000000
O     0.733000000     4.645000000     5.548000000
H     0.776000000     5.054000000     6.412000000
H     0.448000000     5.348000000     4.964000000
O    -4.371000000     1.160000000     6.347000000
H    -3.626000000     1.751000000     6.456000000
H    -4.301000000     0.851000000     5.444000000
O    -2.229000000    -2.772000000     4.437000000
H    -1.566000000    -3.287000000     4.897000000
H    -2.416000000    -3.275000000     3.645000000
O    -2.279000000    -3.703000000    -0.651000000
H    -1.473000000    -3.187000000    -0.607000000
H    -2.009000000    -4.589000000    -0.408000000
O     2.898000000     4.227000000     0.135000000
H     3.515000000     3.504000000     0.023000000
H     3.103000000     4.830000000    -0.580000000
O    -2.205000000     0.980000000    -7.096000000
H    -1.817000000     1.602000000    -6.481000000
H    -3.123000000     0.922000000    -6.832000000
O     0.509000000    -2.208000000     2.793000000
H    -0.285000000    -1.971000000     3.270000000
H     1.179000000    -2.297000000     3.471000000
O    -1.255000000     0.031000000     6.053000000
H    -1.002000000     0.241000000     5.154000000
H    -1.737000000     0.801000000     6.353000000
O     2.442000000     3.231000000     3.184000000
H     1.877000000     3.792000000     3.716000000
H     1.992000000     2.386000000     3.167000000
O    -2.088000000    -4.414000000    -4.173000000
H    -1.239000000    -3.977000000    -4.238000000
H    -2.521000000    -3.988000000    -3.432000000
O     4.558000000     5.055000000     2.413000000
H     3.687000000     4.663000000     2.348000000
H     4.411000000     5.989000000     2.261000000
O    -2.683000000     1.671000000    -2.061000000
H    -3.231000000     1.549000000    -1.285000000
H    -1.887000000     1.173000000    -1.873000000
O     0.977000000     1.955000000     5.969000000
H     1.186000000     2.876000000     5.810000000
H     1.039000000     1.543000000     5.107000000
O     5.123000000     3.415000000     4.931000000
H     5.030000000     4.244000000     5.402000000
H     4.416000000     3.427000000     4.286000000
O    -0.527000000     4.019000000     1.160000000
H    -0.758000000     4.599000000     0.435000000
H     0.429000000     4.059000000     1.204000000
O     4.475000000     1.912000000    -0.413000000
H     4.254000000     1.144000000     0.113000000
H     5.059000000     1.577000000    -1.093000000
O     4.298000000    -0.696000000    -5.450000000
H     3.513000000    -1.213000000    -5.270000000
H     5.024000000    -1.271000000    -5.211000000
O     1.604000000    -1.333000000    -5.616000000
H     0.656000000    -1.446000000    -5.562000000
H     1.761000000    -1.049000000    -6.517000000
O     1.229000000    -2.871000000    -3.492000000
H     1.496000000    -2.473000000    -4.320000000
H     1.741000000    -3.678000000    -3.438000000
O    -2.054000000     2.004000000     7.667000000
H    -2.584000000     2.795000000     7.765000000
H    -1.315000000     2.136000000     8.261000000
O     1.254000000    -2.614000000     0.162000000
H     0.988000000    -1.729000000    -0.089000000
H     1.105000000    -2.649000000     1.107000000
