158
-3034.46436
C    -0.298000000     0.461000000     1.337000000
H    -0.617000000     0.777000000     2.327000000
C    -0.903000000    -0.668000000     0.767000000
H    -1.562000000    -1.348000000     1.300000000
C    -0.499000000    -1.051000000    -0.483000000
H    -0.900000000    -1.945000000    -0.951000000
C     0.382000000    -0.229000000    -1.233000000
H     0.627000000    -0.517000000    -2.252000000
C     0.894000000     0.938000000    -0.645000000
H     1.781000000     1.405000000    -1.066000000
C     0.641000000     1.210000000     0.679000000
C     1.282000000     2.471000000     1.289000000
O     2.291000000     3.037000000     0.812000000
O     0.954000000     2.826000000     2.438000000
O     3.317000000     6.929000000    -2.161000000
H     3.324000000     6.405000000    -2.961000000
H     3.495000000     6.300000000    -1.461000000
O     3.589000000    -0.243000000     1.918000000
H     4.245000000     0.394000000     1.634000000
H     3.328000000     0.054000000     2.790000000
O     4.363000000     6.201000000     4.623000000
H     4.267000000     6.718000000     3.823000000
H     3.752000000     5.472000000     4.512000000
O    -0.097000000    -4.626000000     1.594000000
H    -0.328000000    -4.578000000     0.666000000
H     0.448000000    -3.854000000     1.745000000
O     6.069000000     6.422000000     0.284000000
H     5.407000000     5.756000000     0.467000000
H     6.259000000     6.322000000    -0.649000000
O     0.543000000     0.461000000    -5.133000000
H    -0.396000000     0.278000000    -5.111000000
H     0.714000000     0.936000000    -4.320000000
O    -3.818000000    -1.747000000     4.774000000
H    -3.067000000    -2.288000000     4.532000000
H    -4.081000000    -1.323000000     3.957000000
O     3.633000000     7.365000000     2.176000000
H     3.022000000     7.336000000     1.440000000
H     4.495000000     7.457000000     1.768000000
O    -4.295000000     2.380000000     0.632000000
H    -4.417000000     3.326000000     0.545000000
H    -3.778000000     2.134000000    -0.135000000
O    -3.747000000    -0.332000000     2.226000000
H    -3.298000000    -0.643000000     1.440000000
H    -4.437000000     0.244000000     1.897000000
O     3.473000000    -4.229000000     2.315000000
H     2.735000000    -3.668000000     2.077000000
H     3.746000000    -4.629000000     1.489000000
O     1.623000000     5.599000000     0.399000000
H     2.100000000     5.604000000    -0.431000000
H     1.736000000     4.710000000     0.735000000
O    -0.826000000    -5.982000000    -5.091000000
H    -0.216000000    -6.031000000    -5.827000000
H    -0.660000000    -5.124000000    -4.699000000
O     1.751000000    -2.166000000     1.044000000
H     2.225000000    -1.417000000     1.405000000
H     1.331000000    -1.825000000     0.254000000
O    -1.450000000    -3.235000000     4.270000000
H    -1.623000000    -3.810000000     3.525000000
H    -0.505000000    -3.083000000     4.241000000
O    -5.188000000     0.361000000    -3.809000000
H    -5.210000000     1.277000000    -3.533000000
H    -5.787000000    -0.085000000    -3.210000000
O    -3.606000000    -6.290000000     1.211000000
H    -3.428000000    -6.473000000     0.289000000
H    -4.550000000    -6.139000000     1.248000000
O    -6.777000000    -0.622000000    -1.777000000
H    -6.731000000    -1.459000000    -1.315000000
H    -7.711000000    -0.488000000    -1.937000000
O    -2.946000000     2.585000000     3.259000000
H    -2.580000000     1.728000000     3.478000000
H    -3.513000000     2.418000000     2.506000000
O     0.133000000    -0.271000000     4.909000000
H     0.222000000     0.527000000     4.389000000
H    -0.732000000    -0.200000000     5.312000000
O     4.890000000    -1.610000000    -3.910000000
H     5.837000000    -1.642000000    -3.776000000
H     4.526000000    -2.066000000    -3.152000000
O     0.526000000     2.344000000    -3.082000000
H     0.464000000     2.137000000    -2.150000000
H     0.674000000     3.289000000    -3.109000000
O    -0.220000000    -7.347000000    -2.333000000
H    -0.451000000    -7.006000000    -3.197000000
H     0.172000000    -8.202000000    -2.509000000
O     2.407000000     1.149000000     4.031000000
H     2.185000000     1.860000000     3.429000000
H     2.244000000     1.512000000     4.901000000
O    -3.775000000    -1.283000000    -0.495000000
H    -3.802000000    -1.261000000    -1.452000000
H    -4.465000000    -1.899000000    -0.250000000
O     1.074000000     6.804000000     3.683000000
H     1.116000000     7.465000000     2.992000000
H     0.333000000     7.072000000     4.227000000
O     4.218000000     0.702000000    -5.129000000
H     4.337000000    -0.094000000    -4.610000000
H     3.493000000     0.496000000    -5.720000000
O    -0.702000000    -4.787000000    -1.138000000
H    -1.600000000    -4.722000000    -1.462000000
H    -0.394000000    -5.636000000    -1.455000000
O    -0.987000000    -2.841000000    -5.534000000
H    -1.507000000    -2.048000000    -5.403000000
H    -0.079000000    -2.543000000    -5.485000000
O    -2.527000000     0.657000000     5.620000000
H    -3.160000000    -0.007000000     5.347000000
H    -2.956000000     1.115000000     6.343000000
O    -2.555000000     3.219000000    -2.937000000
H    -1.925000000     3.582000000    -2.314000000
H    -2.943000000     2.474000000    -2.479000000
O    -2.260000000    -0.240000000    -5.636000000
H    -2.548000000     0.444000000    -5.032000000
H    -2.989000000    -0.343000000    -6.247000000
O     5.176000000     3.876000000     1.272000000
H     4.310000000     3.540000000     1.503000000
H     5.638000000     3.944000000     2.108000000
O     4.138000000    -2.450000000    -1.438000000
H     4.812000000    -2.267000000    -0.785000000
H     3.365000000    -2.686000000    -0.925000000
O    -0.501000000     3.373000000     4.655000000
H    -0.039000000     3.428000000     3.818000000
H    -1.361000000     3.016000000     4.430000000
O     2.870000000     4.574000000     3.264000000
H     2.370000000     5.382000000     3.154000000
H     2.349000000     3.907000000     2.816000000
O    -2.627000000     1.095000000    -1.074000000
H    -3.086000000     0.298000000    -0.811000000
H    -1.726000000     0.962000000    -0.779000000
O    -6.015000000    -2.716000000    -0.024000000
H    -5.949000000    -2.536000000     0.914000000
H    -6.708000000    -3.372000000    -0.094000000
O     0.009000000     4.269000000     7.199000000
H    -0.835000000     4.282000000     7.650000000
H    -0.192000000     3.934000000     6.325000000
O     0.095000000     7.963000000     0.738000000
H     0.477000000     7.085000000     0.715000000
H    -0.057000000     8.181000000    -0.182000000
O     3.450000000     4.421000000    -1.241000000
H     3.973000000     3.779000000    -1.721000000
H     3.368000000     4.055000000    -0.361000000
O    -3.306000000    -4.792000000    -1.441000000
H    -4.161000000    -4.570000000    -1.808000000
H    -3.373000000    -4.555000000    -0.516000000
O     4.965000000     2.593000000    -2.660000000
H     5.662000000     2.076000000    -2.256000000
H     4.548000000     1.992000000    -3.277000000
O     2.384000000     2.707000000     6.518000000
H     1.576000000     2.984000000     6.949000000
H     2.579000000     3.410000000     5.899000000
O     1.303000000    -2.603000000     3.934000000
H     1.123000000    -1.752000000     4.332000000
H     1.508000000    -2.402000000     3.021000000
O    -1.246000000     4.270000000    -0.991000000
H    -1.741000000     4.286000000    -0.172000000
H    -0.710000000     5.063000000    -0.961000000
O    -2.971000000     5.099000000     4.122000000
H    -2.941000000     4.192000000     3.818000000
H    -2.432000000     5.105000000     4.912000000
O     5.713000000     1.067000000     0.535000000
H     5.588000000     2.014000000     0.464000000
H     6.007000000     0.799000000    -0.336000000
