158
-3061.53987
C    -0.333000000    -0.128000000     1.395000000
H    -0.610000000    -0.370000000     2.418000000
C    -1.069000000    -0.681000000     0.343000000
H    -2.043000000    -1.162000000     0.379000000
C    -0.685000000    -0.475000000    -0.942000000
H    -1.256000000    -0.912000000    -1.717000000
C     0.564000000     0.124000000    -1.129000000
H     0.974000000     0.172000000    -2.134000000
C     1.227000000     0.745000000    -0.092000000
H     2.139000000     1.313000000    -0.257000000
C     0.796000000     0.648000000     1.240000000
C     1.597000000     1.298000000     2.359000000
O     2.400000000     2.156000000     2.080000000
O     1.335000000     1.046000000     3.522000000
O    -0.034000000    -5.021000000    -4.997000000
H    -0.801000000    -4.552000000    -5.325000000
H     0.077000000    -4.703000000    -4.101000000
O    -5.347000000     0.795000000    -5.094000000
H    -5.427000000     1.456000000    -4.407000000
H    -4.426000000     0.535000000    -5.070000000
O    -5.427000000     2.463000000    -2.735000000
H    -5.319000000     3.229000000    -2.170000000
H    -4.736000000     1.862000000    -2.457000000
O     1.811000000    -2.912000000     1.118000000
H     0.937000000    -3.259000000     1.296000000
H     1.855000000    -2.102000000     1.625000000
O     4.101000000     5.406000000     1.408000000
H     4.853000000     5.123000000     1.928000000
H     3.348000000     5.276000000     1.985000000
O     3.265000000     0.580000000    -5.947000000
H     2.577000000     1.241000000    -5.869000000
H     3.790000000     0.686000000    -5.154000000
O    -3.958000000    -1.627000000     4.927000000
H    -3.027000000    -1.594000000     5.145000000
H    -4.332000000    -2.237000000     5.563000000
O     0.081000000    -4.271000000     4.859000000
H     0.646000000    -5.010000000     4.633000000
H     0.444000000    -3.533000000     4.370000000
O     5.592000000     1.578000000     3.055000000
H     5.235000000     2.275000000     3.606000000
H     5.414000000     1.866000000     2.159000000
O    -5.233000000    -0.703000000     2.650000000
H    -4.794000000    -1.104000000     3.401000000
H    -4.847000000    -1.134000000     1.888000000
O    -1.372000000    -2.353000000    -6.111000000
H    -0.928000000    -1.576000000    -5.771000000
H    -2.303000000    -2.169000000    -5.991000000
O    -0.586000000     3.684000000     1.020000000
H    -0.860000000     4.591000000     1.156000000
H    -0.750000000     3.257000000     1.861000000
O     2.787000000     6.079000000    -2.317000000
H     2.754000000     5.257000000    -1.828000000
H     2.077000000     6.605000000    -1.950000000
O     2.152000000    -1.872000000    -3.715000000
H     2.482000000    -2.770000000    -3.707000000
H     2.846000000    -1.357000000    -3.304000000
O     4.141000000    -2.234000000     3.192000000
H     3.997000000    -3.038000000     3.691000000
H     4.760000000    -1.731000000     3.721000000
O    -1.379000000    -0.900000000     5.520000000
H    -0.708000000    -1.496000000     5.188000000
H    -0.980000000    -0.496000000     6.291000000
O    -2.691000000     2.594000000    -5.627000000
H    -3.202000000     2.382000000    -6.408000000
H    -2.262000000     1.772000000    -5.392000000
O     1.405000000    -1.529000000     4.368000000
H     1.367000000    -0.728000000     3.845000000
H     1.760000000    -1.249000000     5.211000000
O    -3.803000000     0.515000000    -2.126000000
H    -4.591000000     0.294000000    -1.630000000
H    -3.166000000    -0.155000000    -1.876000000
O    -0.459000000    -3.985000000     2.189000000
H    -1.094000000    -4.059000000     1.476000000
H    -0.921000000    -4.319000000     2.957000000
O    -6.009000000     1.376000000     0.957000000
H    -5.916000000     0.464000000     1.231000000
H    -5.163000000     1.597000000     0.567000000
O    -2.985000000    -4.325000000    -4.048000000
H    -2.135000000    -4.034000000    -3.718000000
H    -3.402000000    -3.527000000    -4.372000000
O    -2.784000000     1.863000000     2.854000000
H    -2.365000000     1.071000000     2.519000000
H    -3.367000000     1.552000000     3.547000000
O     0.397000000    -0.560000000    -5.240000000
H     1.133000000    -1.118000000    -4.987000000
H     0.778000000     0.313000000    -5.329000000
O    -0.033000000     0.474000000     7.289000000
H    -0.119000000     0.709000000     8.213000000
H    -0.195000000     1.292000000     6.818000000
O     4.521000000     0.344000000    -3.518000000
H     5.393000000     0.015000000    -3.734000000
H     4.341000000    -0.009000000    -2.647000000
O     0.885000000     2.279000000    -5.378000000
H     0.523000000     2.972000000    -5.931000000
H     0.583000000     2.494000000    -4.496000000
O     3.746000000    -0.967000000    -1.290000000
H     3.006000000    -1.145000000    -0.709000000
H     4.515000000    -1.026000000    -0.723000000
O    -0.238000000    -3.455000000    -2.594000000
H     0.264000000    -2.648000000    -2.707000000
H     0.275000000    -3.972000000    -1.973000000
O     2.995000000     1.240000000     5.533000000
H     2.203000000     1.154000000     5.003000000
H     3.693000000     1.399000000     4.898000000
O    -4.953000000    -1.445000000     0.109000000
H    -4.385000000    -2.156000000    -0.186000000
H    -5.798000000    -1.628000000    -0.301000000
O    -3.524000000     1.131000000     5.390000000
H    -4.293000000     0.563000000     5.418000000
H    -2.960000000     0.805000000     6.092000000
O    -4.477000000    -2.449000000    -5.023000000
H    -5.227000000    -2.263000000    -4.459000000
H    -4.607000000    -1.889000000    -5.788000000
O    -2.135000000     0.179000000    -4.690000000
H    -2.403000000     0.639000000    -3.894000000
H    -1.198000000     0.021000000    -4.571000000
O     6.829000000     3.140000000    -1.182000000
H     6.095000000     2.635000000    -0.832000000
H     6.424000000     3.920000000    -1.561000000
O     1.834000000     4.705000000     2.956000000
H     1.792000000     3.763000000     2.792000000
H     2.060000000     4.777000000     3.883000000
O    -0.513000000     2.942000000     4.093000000
H     0.250000000     2.377000000     3.969000000
H    -1.216000000     2.505000000     3.612000000
O     0.331000000     2.755000000    -2.658000000
H    -0.418000000     3.343000000    -2.563000000
H     0.980000000     3.092000000    -2.040000000
O    -1.773000000    -3.865000000    -0.252000000
H    -1.559000000    -3.590000000    -1.144000000
H    -2.711000000    -4.050000000    -0.277000000
O    -0.405000000     5.562000000     4.032000000
H    -0.484000000     4.613000000     4.121000000
H     0.307000000     5.686000000     3.404000000
O    -3.763000000     2.260000000     0.218000000
H    -3.370000000     2.445000000     1.071000000
H    -3.025000000     2.001000000    -0.334000000
O     1.815000000     4.014000000    -0.371000000
H     2.542000000     4.181000000     0.229000000
H     1.086000000     3.766000000     0.198000000
O    -4.193000000    -3.623000000    -1.627000000
H    -5.036000000    -4.069000000    -1.554000000
H    -3.830000000    -3.930000000    -2.458000000
O     3.952000000     2.797000000    -2.461000000
H     4.000000000     1.955000000    -2.913000000
H     3.049000000     3.088000000    -2.593000000
O     0.194000000     3.146000000     6.883000000
H     0.005000000     3.129000000     5.944000000
H    -0.348000000     3.857000000     7.224000000
O     2.333000000    -1.011000000     7.059000000
H     2.866000000    -0.307000000     6.688000000
H     1.519000000    -0.581000000     7.323000000
O     5.136000000     3.539000000     4.873000000
H     5.227000000     3.235000000     5.777000000
H     4.272000000     3.951000000     4.845000000
O     4.622000000     2.303000000     0.207000000
H     3.817000000     2.421000000     0.712000000
H     4.375000000     2.521000000    -0.692000000
