158
-2989.07808
C     0.441000000    -0.800000000     1.160000000
H     0.677000000    -1.543000000     1.917000000
C    -0.671000000    -1.090000000     0.376000000
H    -1.220000000    -2.016000000     0.531000000
C    -1.025000000    -0.235000000    -0.673000000
H    -1.913000000    -0.536000000    -1.196000000
C    -0.222000000     0.932000000    -0.968000000
H    -0.481000000     1.568000000    -1.810000000
C     0.981000000     1.082000000    -0.247000000
H     1.691000000     1.843000000    -0.560000000
C     1.337000000     0.269000000     0.875000000
C     2.489000000     0.531000000     1.749000000
O     3.050000000     1.588000000     1.698000000
O     2.947000000    -0.289000000     2.528000000
O    -2.535000000    -5.148000000    -0.909000000
H    -1.773000000    -5.123000000    -1.488000000
H    -2.430000000    -5.959000000    -0.411000000
O    -4.090000000    -5.499000000    -4.018000000
H    -4.057000000    -4.559000000    -3.844000000
H    -3.344000000    -5.858000000    -3.538000000
O     0.658000000    -1.902000000    -3.935000000
H     0.426000000    -1.005000000    -4.175000000
H     0.970000000    -1.836000000    -3.033000000
O     5.081000000    -2.459000000     5.083000000
H     5.618000000    -2.110000000     4.371000000
H     4.241000000    -2.662000000     4.672000000
O    -2.694000000     3.305000000    -1.730000000
H    -3.011000000     3.866000000    -1.023000000
H    -2.045000000     3.840000000    -2.188000000
O     3.640000000    -3.130000000     0.909000000
H     2.796000000    -3.386000000     0.538000000
H     3.457000000    -2.976000000     1.836000000
O     1.800000000     0.104000000     4.960000000
H     0.993000000    -0.364000000     4.743000000
H     2.360000000    -0.017000000     4.193000000
O     0.187000000    -3.757000000     4.611000000
H    -0.677000000    -3.671000000     5.013000000
H     0.800000000    -3.536000000     5.311000000
O     0.301000000     3.733000000     0.538000000
H     0.889000000     3.017000000     0.778000000
H    -0.473000000     3.601000000     1.084000000
O     5.004000000     0.992000000     4.046000000
H     5.723000000     1.029000000     3.416000000
H     4.244000000     0.729000000     3.527000000
O    -3.458000000     1.086000000     1.881000000
H    -3.531000000     0.599000000     2.702000000
H    -2.587000000     0.868000000     1.550000000
O    -3.024000000    -2.639000000    -6.546000000
H    -3.778000000    -2.459000000    -5.984000000
H    -3.202000000    -2.149000000    -7.349000000
O     0.132000000     6.416000000     1.352000000
H     0.225000000     5.473000000     1.219000000
H     0.062000000     6.518000000     2.301000000
O     4.394000000     5.861000000    -2.965000000
H     3.695000000     6.346000000    -2.525000000
H     4.189000000     4.941000000    -2.798000000
O     1.911000000    -1.327000000    -1.698000000
H     2.161000000    -1.876000000    -0.955000000
H     1.240000000    -0.741000000    -1.348000000
O     4.550000000     1.793000000     6.603000000
H     4.828000000     1.482000000     5.742000000
H     3.596000000     1.709000000     6.592000000
O    -3.199000000     1.556000000    -3.859000000
H    -3.757000000     0.854000000    -3.522000000
H    -3.007000000     2.097000000    -3.094000000
O     2.993000000    -2.920000000     3.505000000
H     2.754000000    -2.007000000     3.347000000
H     2.189000000    -3.326000000     3.828000000
O    -7.095000000    -0.600000000    -1.934000000
H    -7.308000000    -0.644000000    -2.866000000
H    -7.616000000     0.132000000    -1.603000000
O    -3.702000000    -2.305000000     2.301000000
H    -4.208000000    -2.977000000     2.758000000
H    -3.860000000    -2.476000000     1.373000000
O    -4.992000000     2.010000000     0.028000000
H    -4.366000000     2.532000000    -0.473000000
H    -4.462000000     1.574000000     0.694000000
O    -1.743000000     3.579000000     2.306000000
H    -1.946000000     2.645000000     2.370000000
H    -1.707000000     3.878000000     3.214000000
O    -0.576000000     0.448000000    -5.387000000
H    -0.471000000     1.260000000    -4.892000000
H    -1.504000000     0.231000000    -5.298000000
O     7.739000000     2.088000000     2.668000000
H     8.543000000     1.762000000     3.071000000
H     7.347000000     1.318000000     2.257000000
O     0.384000000     3.518000000    -5.414000000
H    -0.465000000     3.546000000    -5.855000000
H     0.510000000     4.406000000    -5.081000000
O     3.373000000     0.191000000    -3.613000000
H     2.886000000    -0.403000000    -3.041000000
H     2.817000000     0.967000000    -3.682000000
O     1.969000000     2.367000000    -3.630000000
H     1.602000000     2.387000000    -4.514000000
H     1.511000000     3.067000000    -3.164000000
O     5.725000000    -2.870000000    -0.979000000
H     6.194000000    -3.577000000    -0.536000000
H     4.936000000    -2.740000000    -0.453000000
O    -3.956000000    -2.972000000    -0.468000000
H    -3.410000000    -3.717000000    -0.722000000
H    -4.701000000    -3.005000000    -1.068000000
O    -6.416000000     0.108000000     2.363000000
H    -5.892000000     0.405000000     1.620000000
H    -7.248000000     0.572000000     2.271000000
O     3.495000000     5.963000000     2.181000000
H     4.285000000     5.738000000     2.671000000
H     3.094000000     6.671000000     2.685000000
O     2.465000000    -5.884000000     1.704000000
H     3.347000000    -5.517000000     1.768000000
H     2.028000000    -5.342000000     1.047000000
O    -0.491000000    -4.242000000     2.076000000
H    -0.115000000    -3.948000000     2.905000000
H    -1.421000000    -4.363000000     2.264000000
O    -5.236000000    -2.477000000    -4.842000000
H    -5.376000000    -2.891000000    -3.990000000
H    -6.091000000    -2.117000000    -5.077000000
O    -4.490000000    -0.225000000    -2.290000000
H    -5.427000000    -0.032000000    -2.265000000
H    -4.435000000    -1.168000000    -2.133000000
O     2.236000000     2.898000000     4.507000000
H     2.605000000     2.880000000     3.624000000
H     2.287000000     1.990000000     4.807000000
O    -4.737000000     0.787000000    -6.462000000
H    -3.987000000     0.340000000    -6.854000000
H    -4.362000000     1.300000000    -5.746000000
O     6.709000000    -2.779000000     2.289000000
H     7.595000000    -2.424000000     2.225000000
H     6.165000000    -2.157000000     1.806000000
O     1.196000000     4.220000000    -1.943000000
H     0.986000000     4.160000000    -1.011000000
H     1.419000000     5.141000000    -2.079000000
O     1.135000000    -3.778000000    -0.010000000
H     0.840000000    -3.933000000    -0.907000000
H     0.332000000    -3.595000000     0.478000000
O    -3.325000000    -0.645000000     4.395000000
H    -3.988000000    -0.931000000     5.024000000
H    -3.266000000    -1.364000000     3.766000000
O    -6.764000000     2.885000000    -2.618000000
H    -5.984000000     2.538000000    -2.184000000
H    -7.399000000     3.003000000    -1.912000000
O     4.051000000     3.669000000     0.478000000
H     3.851000000     4.339000000     1.131000000
H     3.795000000     2.845000000     0.893000000
O    -6.049000000    -3.330000000    -2.356000000
H    -6.302000000    -4.215000000    -2.094000000
H    -6.815000000    -2.792000000    -2.153000000
O     4.267000000     3.220000000    -2.346000000
H     3.535000000     2.812000000    -2.807000000
H     3.952000000     3.334000000    -1.449000000
O    -2.013000000     5.117000000    -4.046000000
H    -2.023000000     4.628000000    -4.869000000
H    -1.086000000     5.172000000    -3.811000000
O    -0.740000000    -0.909000000     5.034000000
H    -1.514000000    -0.636000000     4.541000000
H    -0.912000000    -0.620000000     5.930000000
O     6.172000000     0.134000000     1.341000000
H     6.470000000    -0.354000000     0.573000000
H     5.234000000     0.257000000     1.198000000
