158
-3063.57084
C     0.328000000    -1.228000000     0.691000000
H     0.383000000    -2.255000000     1.043000000
C    -0.362000000    -1.109000000    -0.536000000
H    -0.930000000    -1.968000000    -0.886000000
C    -0.513000000     0.118000000    -1.125000000
H    -1.229000000     0.235000000    -1.965000000
C     0.055000000     1.236000000    -0.542000000
H    -0.268000000     2.198000000    -0.933000000
C     0.752000000     1.103000000     0.668000000
H     1.076000000     1.987000000     1.211000000
C     0.902000000    -0.117000000     1.313000000
C     1.617000000    -0.322000000     2.648000000
O     2.119000000     0.608000000     3.194000000
O     1.608000000    -1.385000000     3.217000000
O    -1.656000000    -3.766000000     0.820000000
H    -1.592000000    -3.822000000    -0.133000000
H    -0.860000000    -4.189000000     1.140000000
O    -3.497000000    -5.101000000    -4.574000000
H    -3.763000000    -4.224000000    -4.297000000
H    -2.582000000    -5.001000000    -4.837000000
O    -1.360000000    -2.345000000    -4.312000000
H    -1.876000000    -1.855000000    -4.952000000
H    -0.754000000    -1.699000000    -3.948000000
O     5.697000000    -2.580000000     5.884000000
H     5.289000000    -2.478000000     5.024000000
H     6.511000000    -3.052000000     5.709000000
O     2.092000000     4.323000000     5.281000000
H     3.009000000     4.569000000     5.401000000
H     1.969000000     3.567000000     5.856000000
O    -7.054000000     0.325000000    -1.539000000
H    -6.216000000     0.427000000    -1.087000000
H    -7.304000000     1.215000000    -1.784000000
O    -3.900000000     2.989000000    -2.567000000
H    -3.616000000     2.839000000    -1.665000000
H    -3.087000000     3.026000000    -3.071000000
O     3.592000000    -3.693000000     1.426000000
H     2.797000000    -3.892000000     1.920000000
H     4.013000000    -2.991000000     1.921000000
O     2.329000000    -0.630000000     5.835000000
H     1.541000000    -1.138000000     6.027000000
H     2.349000000    -0.570000000     4.880000000
O     1.296000000    -4.887000000     5.689000000
H     1.034000000    -4.388000000     6.463000000
H     1.564000000    -5.739000000     6.032000000
O    -0.636000000     3.815000000     2.645000000
H    -0.435000000     3.414000000     3.491000000
H    -1.097000000     3.131000000     2.159000000
O     2.869000000     3.090000000     2.792000000
H     2.530000000     3.605000000     3.524000000
H     2.396000000     2.260000000     2.844000000
O    -2.830000000    -0.381000000     1.061000000
H    -3.058000000    -1.243000000     1.407000000
H    -2.503000000    -0.556000000     0.178000000
O    -0.649000000    -4.817000000    -4.968000000
H     0.211000000    -5.188000000    -4.771000000
H    -0.616000000    -3.931000000    -4.606000000
O     2.755000000     3.883000000    -0.586000000
H     1.885000000     4.136000000    -0.275000000
H     3.310000000     3.929000000     0.193000000
O     2.408000000    -2.203000000    -1.533000000
H     3.020000000    -2.549000000    -0.883000000
H     1.703000000    -1.815000000    -1.015000000
O     2.537000000     1.909000000     6.883000000
H     1.586000000     1.958000000     6.982000000
H     2.685000000     1.104000000     6.387000000
O    -5.282000000     2.455000000    -4.964000000
H    -4.864000000     2.393000000    -4.105000000
H    -5.697000000     3.318000000    -4.966000000
O     1.178000000    -3.931000000     3.100000000
H     1.088000000    -2.978000000     3.122000000
H     1.040000000    -4.206000000     4.006000000
O    -3.726000000    -2.663000000     2.287000000
H    -2.877000000    -2.887000000     1.905000000
H    -3.994000000    -3.455000000     2.754000000
O    -4.778000000     0.847000000    -0.480000000
H    -4.478000000     1.744000000    -0.336000000
H    -4.308000000     0.330000000     0.175000000
O     1.450000000    -0.824000000    -5.915000000
H     1.246000000    -1.689000000    -6.272000000
H     2.121000000    -0.475000000    -6.502000000
O    -2.825000000     1.744000000     2.761000000
H    -2.864000000     0.946000000     2.234000000
H    -2.197000000     1.543000000     3.454000000
O    -3.012000000     0.064000000    -4.152000000
H    -2.090000000     0.320000000    -4.182000000
H    -3.490000000     0.893000000    -4.113000000
O    -0.190000000     0.386000000    -4.242000000
H     0.433000000    -0.093000000    -4.789000000
H     0.139000000     1.286000000    -4.236000000
O     3.292000000     0.041000000    -3.745000000
H     3.457000000    -0.479000000    -2.959000000
H     2.386000000    -0.161000000    -3.980000000
O     1.633000000     2.740000000    -5.076000000
H     2.473000000     2.446000000    -5.430000000
H     1.048000000     2.763000000    -5.833000000
O    -5.349000000    -3.439000000    -0.053000000
H    -4.939000000    -3.131000000     0.755000000
H    -4.668000000    -3.345000000    -0.718000000
O     4.682000000     4.156000000     1.426000000
H     5.270000000     4.473000000     2.112000000
H     3.956000000     3.752000000     1.900000000
O    -0.115000000    -5.744000000     1.713000000
H     0.108000000    -5.153000000     2.432000000
H    -1.001000000    -6.045000000     1.916000000
O    -1.586000000     2.444000000    -6.398000000
H    -2.246000000     2.639000000    -7.064000000
H    -1.229000000     1.595000000    -6.656000000
O    -1.684000000    -1.198000000    -7.412000000
H    -2.209000000    -1.936000000    -7.722000000
H    -1.535000000    -0.665000000    -8.193000000
O     0.396000000     6.336000000    -1.220000000
H     0.476000000     5.953000000    -0.346000000
H    -0.428000000     6.823000000    -1.193000000
O    -4.034000000    -2.672000000    -2.507000000
H    -3.680000000    -1.803000000    -2.700000000
H    -4.877000000    -2.693000000    -2.960000000
O    -0.319000000     1.381000000     4.276000000
H     0.445000000     1.171000000     3.739000000
H    -0.459000000     0.598000000     4.809000000
O    -5.006000000    -0.246000000    -5.772000000
H    -4.122000000    -0.266000000    -5.406000000
H    -5.278000000     0.668000000    -5.692000000
O     4.230000000     2.492000000    -2.232000000
H     3.792000000     3.197000000    -1.756000000
H     3.535000000     2.084000000    -2.749000000
O     0.681000000    -5.990000000    -1.334000000
H    -0.124000000    -5.814000000    -1.821000000
H     0.385000000    -6.212000000    -0.452000000
O    -0.263000000     2.518000000     6.857000000
H    -0.452000000     2.315000000     5.940000000
H    -0.974000000     3.101000000     7.124000000
O    -3.384000000     2.944000000     0.187000000
H    -3.055000000     2.561000000     1.000000000
H    -3.364000000     3.888000000     0.342000000
O     4.967000000     0.744000000     2.862000000
H     5.569000000     1.402000000     3.210000000
H     4.097000000     1.072000000     3.088000000
O     0.584000000     5.076000000    -3.533000000
H     1.196000000     4.341000000    -3.571000000
H     0.754000000     5.487000000    -2.686000000
O     4.455000000     0.427000000     0.011000000
H     4.447000000     1.232000000    -0.507000000
H     4.577000000     0.724000000     0.912000000
O    -1.818000000    -4.528000000    -1.857000000
H    -2.393000000    -5.290000000    -1.785000000
H    -2.347000000    -3.870000000    -2.308000000
O    -1.534000000     3.362000000    -3.649000000
H    -1.364000000     3.050000000    -4.538000000
H    -1.039000000     4.178000000    -3.582000000
O    -1.263000000    -0.905000000     5.611000000
H    -2.102000000    -1.216000000     5.270000000
H    -0.747000000    -1.700000000     5.741000000
O     0.973000000     5.206000000     1.166000000
H     0.465000000     4.714000000     1.812000000
H     1.255000000     5.993000000     1.633000000
O     4.318000000    -1.811000000     3.357000000
H     4.610000000    -0.910000000     3.215000000
H     3.370000000    -1.741000000     3.468000000
