158
-3031.75016
C    -1.041000000     0.999000000    -0.037000000
H    -1.863000000     1.709000000    -0.072000000
C    -1.353000000    -0.316000000    -0.143000000
H    -2.338000000    -0.751000000    -0.290000000
C    -0.255000000    -1.166000000    -0.043000000
H    -0.349000000    -2.265000000     0.002000000
C     1.043000000    -0.692000000     0.100000000
H     1.857000000    -1.412000000     0.116000000
C     1.379000000     0.612000000     0.286000000
H     2.412000000     0.945000000     0.342000000
C     0.312000000     1.500000000     0.107000000
C     0.535000000     2.980000000    -0.043000000
O     1.598000000     3.478000000     0.213000000
O    -0.439000000     3.728000000    -0.123000000
O    -3.119000000     0.178000000    -3.248000000
H    -2.298000000     0.454000000    -2.840000000
H    -2.887000000     0.004000000    -4.160000000
O     2.682000000    -2.017000000     3.277000000
H     2.609000000    -2.665000000     3.978000000
H     3.605000000    -1.765000000     3.278000000
O    -3.187000000     6.939000000     0.497000000
H    -3.442000000     7.081000000     1.409000000
H    -3.776000000     7.501000000    -0.007000000
O    -5.127000000    -3.551000000    -1.790000000
H    -5.092000000    -2.729000000    -2.279000000
H    -5.997000000    -3.905000000    -1.978000000
O     4.173000000     3.906000000     0.003000000
H     4.198000000     4.739000000     0.474000000
H     3.326000000     3.525000000     0.236000000
O    -2.057000000    -5.395000000     4.084000000
H    -1.737000000    -5.344000000     3.184000000
H    -1.492000000    -4.796000000     4.573000000
O     1.954000000     5.274000000     2.255000000
H     1.730000000     4.800000000     1.455000000
H     1.725000000     6.184000000     2.067000000
O    -6.850000000    -1.318000000    -0.747000000
H    -6.379000000    -1.400000000    -1.576000000
H    -6.326000000    -0.702000000    -0.234000000
O     1.998000000    -4.538000000    -2.098000000
H     1.508000000    -4.856000000    -1.340000000
H     2.916000000    -4.689000000    -1.870000000
O    -0.402000000    -7.320000000    -1.653000000
H    -1.223000000    -7.727000000    -1.931000000
H    -0.654000000    -6.441000000    -1.371000000
O     3.892000000     2.720000000     2.992000000
H     3.338000000     2.007000000     3.310000000
H     3.449000000     3.516000000     3.287000000
O    -4.557000000    -4.356000000     3.081000000
H    -4.122000000    -3.958000000     2.326000000
H    -3.866000000    -4.849000000     3.523000000
O    -3.458000000    -3.850000000     0.219000000
H    -4.051000000    -3.797000000    -0.530000000
H    -3.448000000    -2.963000000     0.580000000
O     2.065000000     0.827000000     4.128000000
H     1.414000000     1.236000000     4.698000000
H     1.621000000     0.058000000     3.770000000
O     3.992000000     5.506000000     4.025000000
H     4.280000000     6.387000000     3.784000000
H     3.103000000     5.441000000     3.677000000
O     0.531000000    -5.510000000    -4.760000000
H    -0.299000000    -5.957000000    -4.925000000
H     0.461000000    -5.200000000    -3.857000000
O     0.131000000    -3.084000000     4.466000000
H    -0.308000000    -2.237000000     4.396000000
H     0.568000000    -3.058000000     5.317000000
O    -0.266000000    -2.721000000    -5.484000000
H    -0.082000000    -3.660000000    -5.509000000
H     0.421000000    -2.357000000    -4.926000000
O    -5.676000000     0.865000000     0.504000000
H    -5.583000000     1.505000000    -0.202000000
H    -5.640000000     1.386000000     1.306000000
O     4.320000000    -3.448000000     0.967000000
H     4.476000000    -2.508000000     1.057000000
H     4.067000000    -3.734000000     1.844000000
O     1.541000000    -2.131000000    -3.678000000
H     1.713000000    -2.913000000    -3.154000000
H     2.114000000    -1.461000000    -3.305000000
O    -3.435000000    -1.071000000     4.322000000
H    -3.137000000    -1.179000000     5.225000000
H    -2.786000000    -0.490000000     3.924000000
O    -3.036000000     4.223000000    -0.214000000
H    -2.148000000     3.920000000    -0.024000000
H    -3.002000000     5.169000000    -0.072000000
O    -5.734000000     2.563000000    -1.779000000
H    -6.101000000     2.729000000    -2.648000000
H    -6.439000000     2.790000000    -1.173000000
O     6.347000000    -1.012000000     0.549000000
H     5.936000000    -0.152000000     0.464000000
H     7.280000000    -0.823000000     0.650000000
O    -0.435000000     2.796000000     3.090000000
H     0.374000000     3.269000000     2.896000000
H    -0.516000000     2.841000000     4.043000000
O    -5.627000000    -1.238000000    -3.079000000
H    -5.182000000    -0.405000000    -2.924000000
H    -5.937000000    -1.180000000    -3.983000000
O     4.437000000     2.600000000    -2.396000000
H     5.271000000     2.444000000    -2.839000000
H     4.669000000     3.115000000    -1.623000000
O     1.584000000     4.972000000    -3.699000000
H     1.580000000     4.048000000    -3.948000000
H     0.865000000     5.055000000    -3.073000000
O    -0.862000000    -0.165000000     2.848000000
H    -0.670000000    -0.539000000     1.989000000
H    -0.531000000     0.732000000     2.798000000
O     5.010000000    -5.110000000    -0.784000000
H     4.817000000    -4.324000000    -0.273000000
H     5.900000000    -5.351000000    -0.525000000
O    -1.081000000     6.487000000    -4.400000000
H    -1.158000000     7.274000000    -3.862000000
H    -0.797000000     5.806000000    -3.790000000
O     0.011000000    -4.109000000     2.050000000
H     0.080000000    -3.198000000     1.765000000
H     0.248000000    -4.090000000     2.977000000
O     1.674000000     6.123000000    -0.630000000
H     1.995000000     5.229000000    -0.751000000
H     0.994000000     6.045000000     0.039000000
O    -3.045000000     1.890000000     2.317000000
H    -2.680000000     1.026000000     2.125000000
H    -2.280000000     2.438000000     2.492000000
O    -0.867000000     4.363000000    -2.524000000
H    -1.740000000     4.054000000    -2.767000000
H    -0.874000000     4.374000000    -1.567000000
O    -0.124000000    -7.567000000     1.603000000
H     0.626000000    -7.138000000     1.190000000
H    -0.865000000    -6.995000000     1.405000000
O    -0.617000000     6.080000000     1.062000000
H    -0.499000000     5.173000000     0.779000000
H    -1.341000000     6.405000000     0.528000000
O     5.847000000     1.503000000     0.820000000
H     6.110000000     1.334000000     1.725000000
H     5.150000000     2.155000000     0.891000000
O     2.032000000    -5.462000000     0.638000000
H     1.289000000    -4.955000000     0.965000000
H     2.802000000    -4.963000000     0.913000000
O     4.265000000     5.681000000    -2.233000000
H     4.272000000     5.524000000    -1.288000000
H     3.403000000     5.377000000    -2.519000000
O    -2.349000000    -5.913000000     1.459000000
H    -2.710000000    -5.156000000     0.998000000
H    -3.100000000    -6.492000000     1.593000000
O    -5.732000000     4.558000000     0.216000000
H    -4.855000000     4.281000000    -0.051000000
H    -5.877000000     5.378000000    -0.256000000
O     3.473000000    -0.208000000    -2.800000000
H     3.567000000    -0.628000000    -1.945000000
H     3.958000000     0.613000000    -2.718000000
O    -3.304000000     3.516000000    -3.339000000
H    -4.032000000     3.648000000    -3.946000000
H    -3.692000000     3.052000000    -2.597000000
O    -0.765000000    -4.737000000    -0.840000000
H    -0.944000000    -3.935000000    -1.332000000
H    -1.397000000    -4.723000000    -0.121000000
O    -5.500000000     2.786000000     2.629000000
H    -5.452000000     3.584000000     2.103000000
H    -4.674000000     2.335000000     2.456000000
O    -3.973000000    -1.390000000     1.632000000
H    -4.390000000    -0.657000000     1.180000000
H    -4.122000000    -1.215000000     2.561000000
