158
-3026.03747
C    -0.101000000    -1.190000000     0.960000000
H    -0.021000000    -2.169000000     1.425000000
C    -0.174000000    -1.249000000    -0.463000000
H    -0.135000000    -2.215000000    -0.959000000
C    -0.216000000    -0.107000000    -1.276000000
H    -0.309000000    -0.136000000    -2.370000000
C    -0.225000000     1.128000000    -0.648000000
H    -0.214000000     2.098000000    -1.138000000
C    -0.033000000     1.191000000     0.769000000
H     0.091000000     2.207000000     1.134000000
C     0.047000000     0.086000000     1.597000000
C     0.159000000     0.228000000     3.082000000
O     0.273000000     1.327000000     3.549000000
O     0.098000000    -0.735000000     3.834000000
O     2.127000000    -4.497000000    -4.583000000
H     2.126000000    -4.152000000    -3.690000000
H     2.972000000    -4.939000000    -4.668000000
O     0.453000000     4.666000000    -2.587000000
H    -0.232000000     4.228000000    -3.091000000
H     0.392000000     5.585000000    -2.847000000
O     5.252000000    -1.606000000    -2.761000000
H     5.188000000    -2.476000000    -3.156000000
H     4.345000000    -1.347000000    -2.604000000
O     1.194000000     4.469000000     5.866000000
H     1.553000000     3.589000000     5.756000000
H     1.820000000     4.913000000     6.438000000
O     1.710000000    -0.700000000    -4.626000000
H     1.575000000    -1.378000000    -3.964000000
H     2.195000000    -0.012000000    -4.170000000
O     0.896000000     6.850000000     0.787000000
H     1.724000000     6.519000000     1.137000000
H     0.362000000     6.067000000     0.655000000
O     2.402000000    -6.011000000     3.203000000
H     1.667000000    -6.591000000     3.402000000
H     2.013000000    -5.295000000     2.701000000
O     0.343000000    -3.898000000    -6.511000000
H    -0.392000000    -3.626000000    -5.962000000
H     0.994000000    -4.228000000    -5.892000000
O     1.715000000    -2.750000000     4.294000000
H     1.220000000    -3.565000000     4.212000000
H     1.073000000    -2.061000000     4.119000000
O     3.790000000    -3.284000000     5.535000000
H     4.287000000    -2.841000000     4.847000000
H     2.900000000    -3.342000000     5.188000000
O    -2.281000000     2.457000000     3.128000000
H    -1.350000000     2.271000000     3.001000000
H    -2.720000000     1.632000000     2.921000000
O     2.796000000     2.277000000     4.258000000
H     2.659000000     2.084000000     5.185000000
H     1.983000000     2.002000000     3.834000000
O    -3.026000000    -4.483000000     2.789000000
H    -3.964000000    -4.474000000     2.978000000
H    -2.973000000    -4.475000000     1.834000000
O    -1.743000000    -4.139000000    -4.444000000
H    -1.862000000    -4.363000000    -3.521000000
H    -2.309000000    -4.750000000    -4.915000000
O     4.910000000     4.117000000    -1.364000000
H     4.111000000     3.592000000    -1.413000000
H     5.277000000     3.913000000    -0.503000000
O     2.119000000    -3.349000000    -2.211000000
H     2.526000000    -2.572000000    -1.828000000
H     1.533000000    -3.674000000    -1.528000000
O    -0.526000000     0.606000000     6.444000000
H    -0.903000000     1.404000000     6.073000000
H    -0.160000000     0.141000000     5.692000000
O    -0.439000000    -4.801000000     4.139000000
H    -0.886000000    -4.390000000     3.399000000
H    -1.045000000    -5.479000000     4.437000000
O    -3.509000000     0.424000000    -2.975000000
H    -2.994000000     0.177000000    -2.207000000
H    -4.416000000     0.403000000    -2.672000000
O    -1.414000000    -0.172000000    -7.499000000
H    -1.354000000    -0.458000000    -8.411000000
H    -0.552000000     0.195000000    -7.306000000
O    -3.687000000    -0.168000000     2.411000000
H    -4.441000000    -0.753000000     2.338000000
H    -3.142000000    -0.563000000     3.091000000
O     4.170000000     4.647000000     3.615000000
H     4.607000000     4.658000000     4.466000000
H     3.462000000     4.010000000     3.717000000
O    -2.195000000    -3.680000000     6.029000000
H    -3.018000000    -4.004000000     5.665000000
H    -1.520000000    -4.040000000     5.454000000
O     1.848000000    -1.745000000    -7.209000000
H     1.282000000    -2.442000000    -6.878000000
H     2.019000000    -1.193000000    -6.446000000
O    -2.479000000     1.640000000    -5.247000000
H    -2.012000000     1.097000000    -5.882000000
H    -2.865000000     1.014000000    -4.634000000
O    -2.664000000     3.058000000     0.166000000
H    -3.426000000     2.861000000     0.711000000
H    -2.585000000     2.303000000    -0.417000000
O    -1.569000000     3.023000000     5.785000000
H    -1.859000000     2.752000000     4.914000000
H    -0.916000000     3.703000000     5.618000000
O     3.105000000     1.111000000    -3.592000000
H     3.216000000     1.534000000    -2.740000000
H     3.011000000     1.836000000    -4.209000000
O     2.185000000     4.102000000    -5.032000000
H     2.107000000     4.740000000    -5.742000000
H     1.473000000     4.323000000    -4.432000000
O    -4.022000000     4.549000000     2.584000000
H    -3.318000000     3.945000000     2.820000000
H    -3.904000000     4.700000000     1.647000000
O    -1.813000000     4.047000000    -3.950000000
H    -2.532000000     4.201000000    -3.338000000
H    -2.025000000     3.211000000    -4.364000000
O    -2.356000000    -1.286000000     4.544000000
H    -2.482000000    -2.078000000     5.068000000
H    -1.407000000    -1.167000000     4.516000000
O     5.047000000    -3.384000000     1.804000000
H     4.413000000    -2.697000000     2.009000000
H     4.874000000    -3.605000000     0.889000000
O    -2.125000000     6.998000000     1.391000000
H    -1.671000000     6.344000000     0.859000000
H    -2.901000000     7.226000000     0.880000000
O     3.174000000     2.720000000     1.620000000
H     4.085000000     3.013000000     1.616000000
H     3.076000000     2.253000000     2.450000000
O    -1.618000000    -5.266000000    -1.606000000
H    -2.363000000    -4.751000000    -1.295000000
H    -1.685000000    -6.095000000    -1.132000000
O    -1.186000000    -1.542000000     7.944000000
H    -1.630000000    -2.180000000     7.386000000
H    -1.314000000    -0.704000000     7.500000000
O    -3.358000000    -1.297000000    -0.222000000
H    -2.415000000    -1.285000000    -0.386000000
H    -3.457000000    -0.890000000     0.638000000
O     0.571000000    -4.446000000    -0.178000000
H     1.095000000    -5.209000000     0.069000000
H    -0.164000000    -4.810000000    -0.671000000
O     4.058000000    -0.151000000     4.628000000
H     3.727000000    -0.729000000     5.316000000
H     3.574000000     0.666000000     4.749000000
O     0.999000000     1.285000000    -7.103000000
H     1.775000000     0.896000000    -7.507000000
H     1.322000000     1.679000000    -6.293000000
O     3.183000000    -1.027000000    -0.874000000
H     3.726000000    -0.342000000    -0.484000000
H     2.383000000    -1.028000000    -0.349000000
O    -3.684000000    -4.239000000    -0.085000000
H    -4.432000000    -4.834000000    -0.024000000
H    -4.074000000    -3.380000000    -0.249000000
O    -4.523000000    -0.008000000     5.941000000
H    -5.337000000    -0.442000000     5.689000000
H    -3.849000000    -0.439000000     5.415000000
O     2.670000000     2.651000000    -1.515000000
H     2.445000000     2.675000000    -0.585000000
H     1.902000000     3.014000000    -1.957000000
O    -0.795000000     4.959000000    -0.078000000
H    -1.318000000     4.158000000    -0.080000000
H    -0.533000000     5.077000000    -0.991000000
O     2.137000000     1.527000000     6.751000000
H     1.296000000     1.207000000     7.078000000
H     2.483000000     2.063000000     7.465000000
O     3.427000000    -1.474000000     2.189000000
H     4.129000000    -0.881000000     2.455000000
H     2.875000000    -1.556000000     2.967000000
