158
-3036.50066
C     0.699000000    -1.168000000     0.512000000
H     1.440000000    -1.837000000     0.941000000
C     0.852000000    -0.656000000    -0.788000000
H     1.671000000    -1.019000000    -1.404000000
C     0.035000000     0.437000000    -1.152000000
H     0.102000000     0.866000000    -2.136000000
C    -0.929000000     0.944000000    -0.255000000
H    -1.561000000     1.793000000    -0.506000000
C    -1.054000000     0.398000000     1.014000000
H    -1.782000000     0.762000000     1.734000000
C    -0.240000000    -0.632000000     1.436000000
C    -0.230000000    -1.053000000     2.842000000
O    -0.921000000    -0.490000000     3.642000000
O     0.747000000    -1.713000000     3.249000000
O     4.641000000    -0.420000000    -4.710000000
H     3.959000000    -1.047000000    -4.949000000
H     5.182000000    -0.886000000    -4.072000000
O     0.238000000     4.160000000    -2.028000000
H     0.475000000     3.805000000    -2.885000000
H     0.818000000     3.710000000    -1.414000000
O    -0.598000000    -2.007000000    -3.575000000
H    -0.289000000    -1.123000000    -3.375000000
H     0.124000000    -2.578000000    -3.311000000
O    -1.601000000     2.719000000     5.800000000
H    -0.982000000     3.175000000     5.230000000
H    -2.078000000     2.131000000     5.214000000
O     4.440000000     0.095000000    -0.455000000
H     4.027000000     0.714000000     0.146000000
H     4.774000000     0.640000000    -1.168000000
O     2.197000000     3.357000000    -0.140000000
H     2.838000000     2.753000000     0.236000000
H     2.705000000     4.137000000    -0.361000000
O    -3.145000000    -1.429000000    -4.084000000
H    -3.726000000    -2.133000000    -4.371000000
H    -2.276000000    -1.831000000    -4.059000000
O     3.141000000     1.359000000     1.632000000
H     3.459000000     1.202000000     2.521000000
H     2.224000000     1.611000000     1.746000000
O     2.346000000    -2.160000000    -4.786000000
H     2.200000000    -2.943000000    -4.256000000
H     2.513000000    -2.494000000    -5.667000000
O     0.992000000    -4.447000000     3.376000000
H     0.039000000    -4.423000000     3.295000000
H     1.269000000    -3.546000000     3.208000000
O    -3.410000000     3.883000000     3.261000000
H    -3.154000000     2.962000000     3.321000000
H    -2.882000000     4.322000000     3.928000000
O     0.807000000     1.755000000     3.735000000
H     0.120000000     1.141000000     3.474000000
H     1.215000000     1.347000000     4.499000000
O     2.665000000    -1.434000000     5.074000000
H     2.091000000    -1.651000000     4.339000000
H     2.359000000    -0.577000000     5.372000000
O    -5.312000000     0.487000000    -3.449000000
H    -4.969000000     1.166000000    -4.030000000
H    -4.547000000    -0.045000000    -3.226000000
O     5.089000000     2.232000000    -2.196000000
H     5.083000000     2.262000000    -3.153000000
H     4.927000000     3.136000000    -1.927000000
O     1.626000000    -3.830000000    -2.683000000
H     2.122000000    -3.616000000    -1.892000000
H     1.871000000    -4.734000000    -2.882000000
O    -0.892000000    -0.891000000     6.455000000
H    -0.837000000    -1.000000000     5.505000000
H    -0.396000000    -1.629000000     6.809000000
O    -1.596000000    -4.465000000     3.092000000
H    -1.878000000    -4.108000000     3.934000000
H    -2.236000000    -4.131000000     2.464000000
O    -1.956000000     6.713000000    -4.024000000
H    -2.548000000     6.312000000    -4.661000000
H    -1.919000000     6.084000000    -3.303000000
O    -3.382000000    -2.252000000     1.633000000
H    -2.945000000    -2.090000000     0.798000000
H    -4.292000000    -2.433000000     1.396000000
O     2.823000000     1.874000000    -4.801000000
H     2.544000000     1.652000000    -5.690000000
H     3.128000000     1.045000000    -4.432000000
O    -3.028000000     1.191000000     4.059000000
H    -2.424000000     0.449000000     4.059000000
H    -3.829000000     0.848000000     3.665000000
O    -1.732000000    -4.350000000    -4.957000000
H    -1.612000000    -3.520000000    -4.495000000
H    -0.842000000    -4.664000000    -5.119000000
O    -2.434000000     0.255000000    -7.752000000
H    -1.946000000     0.310000000    -6.930000000
H    -3.249000000    -0.187000000    -7.516000000
O     0.324000000    -0.096000000    -5.654000000
H     0.967000000    -0.691000000    -5.268000000
H     0.710000000     0.164000000    -6.490000000
O    -4.880000000     0.322000000     0.205000000
H    -5.573000000     0.193000000    -0.442000000
H    -4.094000000    -0.029000000    -0.213000000
O    -5.140000000     3.207000000     0.640000000
H    -5.338000000     2.369000000     0.222000000
H    -4.190000000     3.198000000     0.758000000
O     6.438000000    -0.746000000     1.336000000
H     5.687000000    -0.673000000     0.747000000
H     6.083000000    -1.149000000     2.128000000
O     1.676000000     0.526000000     6.652000000
H     1.403000000     1.373000000     7.004000000
H     0.992000000    -0.082000000     6.932000000
O     1.574000000    -4.380000000     0.765000000
H     1.139000000    -4.413000000     1.618000000
H     1.128000000    -5.047000000     0.243000000
O     0.035000000     2.536000000    -4.523000000
H     0.892000000     2.863000000    -4.797000000
H     0.019000000     1.626000000    -4.821000000
O    -0.497000000     6.349000000    -0.293000000
H     0.259000000     6.111000000     0.244000000
H    -0.524000000     5.682000000    -0.978000000
O    -0.102000000    -2.095000000    -7.812000000
H    -0.452000000    -2.029000000    -6.923000000
H    -0.674000000    -2.728000000    -8.247000000
O     5.457000000    -5.071000000     1.154000000
H     4.901000000    -5.564000000     1.757000000
H     5.086000000    -4.189000000     1.154000000
O    -2.332000000     3.822000000     0.826000000
H    -1.738000000     4.552000000     1.003000000
H    -2.701000000     3.601000000     1.682000000
O    -2.596000000     0.658000000     8.279000000
H    -2.125000000     0.074000000     7.685000000
H    -1.945000000     0.910000000     8.934000000
O     3.597000000    -3.019000000     1.640000000
H     3.803000000    -2.382000000     0.956000000
H     2.939000000    -3.591000000     1.245000000
O    -2.720000000    -1.414000000    -1.046000000
H    -3.067000000    -1.287000000    -1.929000000
H    -1.820000000    -1.093000000    -1.094000000
O    -5.476000000     0.149000000     3.132000000
H    -5.203000000    -0.114000000     2.253000000
H    -6.144000000     0.819000000     2.985000000
O    -4.489000000     1.667000000     6.616000000
H    -4.001000000     1.623000000     5.794000000
H    -3.885000000     1.318000000     7.272000000
O    -2.484000000     4.429000000    -2.083000000
H    -1.562000000     4.271000000    -1.883000000
H    -2.892000000     4.579000000    -1.230000000
O     1.886000000    -5.019000000     5.939000000
H     1.438000000    -5.854000000     5.798000000
H     1.750000000    -4.535000000     5.124000000
O     4.802000000    -2.708000000    -0.908000000
H     5.613000000    -2.782000000    -1.411000000
H     4.545000000    -1.791000000    -1.000000000
O    -3.030000000    -2.244000000     4.184000000
H    -3.011000000    -2.201000000     3.228000000
H    -2.306000000    -1.685000000     4.464000000
O     5.440000000    -1.350000000     4.028000000
H     5.620000000    -0.414000000     3.934000000
H     4.485000000    -1.407000000     4.071000000
O    -0.585000000     4.077000000     3.513000000
H    -0.172000000     3.227000000     3.366000000
H    -0.087000000     4.684000000     2.966000000
O    -2.126000000     3.306000000    -6.122000000
H    -1.401000000     3.044000000    -5.556000000
H    -2.601000000     3.964000000    -5.614000000
O     3.099000000    -2.356000000     7.663000000
H     2.201000000    -2.687000000     7.651000000
H     3.208000000    -1.929000000     6.813000000
