158
-3017.63613
C     0.723000000    -1.028000000     0.549000000
H     1.099000000    -1.958000000     0.969000000
C     0.273000000    -1.049000000    -0.787000000
H     0.462000000    -1.909000000    -1.425000000
C    -0.346000000     0.051000000    -1.175000000
H    -0.799000000     0.077000000    -2.158000000
C    -0.529000000     1.205000000    -0.329000000
H    -1.137000000     2.070000000    -0.585000000
C    -0.070000000     1.170000000     0.977000000
H    -0.316000000     2.014000000     1.616000000
C     0.588000000     0.010000000     1.416000000
C     1.069000000    -0.139000000     2.912000000
O     0.431000000     0.292000000     3.831000000
O     1.841000000    -0.969000000     3.287000000
O     4.179000000    -1.809000000    -0.881000000
H     4.222000000    -0.861000000    -1.010000000
H     4.235000000    -1.924000000     0.068000000
O    -1.897000000    -2.617000000    -3.287000000
H    -1.028000000    -2.991000000    -3.146000000
H    -1.736000000    -1.688000000    -3.449000000
O     4.099000000     0.872000000    -1.139000000
H     3.880000000     1.258000000    -1.987000000
H     3.262000000     0.566000000    -0.792000000
O    -3.980000000    -3.443000000    -1.515000000
H    -4.069000000    -2.537000000    -1.811000000
H    -3.177000000    -3.754000000    -1.934000000
O     4.958000000    -3.759000000     4.674000000
H     5.828000000    -3.736000000     4.275000000
H     4.358000000    -3.843000000     3.934000000
O    -0.689000000    -3.963000000     3.824000000
H    -0.804000000    -3.655000000     4.722000000
H    -1.167000000    -3.329000000     3.290000000
O    -1.462000000     2.800000000     6.920000000
H    -1.891000000     3.476000000     6.395000000
H    -1.282000000     3.226000000     7.758000000
O     1.643000000     3.176000000     3.607000000
H     1.333000000     2.274000000     3.691000000
H     2.352000000     3.246000000     4.246000000
O     2.789000000    -0.720000000     5.601000000
H     2.457000000    -0.931000000     4.728000000
H     2.219000000    -0.015000000     5.910000000
O    -3.258000000    -3.949000000    -5.485000000
H    -2.906000000    -3.435000000    -4.758000000
H    -2.523000000    -4.040000000    -6.092000000
O     4.118000000    -4.624000000    -1.972000000
H     3.924000000    -3.687000000    -1.953000000
H     4.488000000    -4.774000000    -2.842000000
O    -0.402000000    -1.754000000     5.631000000
H    -0.024000000    -1.276000000     4.893000000
H    -0.435000000    -1.112000000     6.340000000
O     3.076000000     4.115000000    -1.858000000
H     2.816000000     3.231000000    -2.116000000
H     3.574000000     4.446000000    -2.606000000
O     0.154000000    -0.773000000    -4.428000000
H     0.457000000    -1.626000000    -4.740000000
H     0.915000000    -0.200000000    -4.522000000
O    -5.307000000     2.755000000    -3.658000000
H    -5.706000000     2.648000000    -4.521000000
H    -4.671000000     2.042000000    -3.598000000
O    -2.456000000    -2.393000000     2.417000000
H    -3.092000000    -2.034000000     3.036000000
H    -2.896000000    -3.152000000     2.035000000
O     2.800000000    -0.053000000    -5.097000000
H     2.710000000    -0.760000000    -5.736000000
H     3.738000000    -0.016000000    -4.910000000
O    -2.024000000     0.983000000     4.638000000
H    -1.230000000     0.716000000     4.176000000
H    -1.706000000     1.443000000     5.415000000
O    -4.354000000     2.787000000     2.414000000
H    -3.462000000     3.133000000     2.373000000
H    -4.757000000     3.250000000     3.149000000
O    -2.880000000     5.828000000    -1.117000000
H    -3.040000000     6.437000000    -0.396000000
H    -3.751000000     5.519000000    -1.367000000
O     4.703000000    -0.757000000     7.777000000
H     4.674000000    -1.169000000     6.914000000
H     4.462000000     0.155000000     7.615000000
O     1.972000000    -5.607000000    -0.856000000
H     2.467000000    -5.491000000    -0.045000000
H     2.619000000    -5.482000000    -1.551000000
O    -2.492000000     1.596000000    -3.263000000
H    -1.985000000     2.337000000    -2.933000000
H    -2.377000000     1.630000000    -4.212000000
O    -3.376000000    -0.816000000    -6.587000000
H    -2.714000000    -1.478000000    -6.785000000
H    -3.081000000    -0.035000000    -7.054000000
O     0.943000000    -3.679000000    -4.665000000
H     1.279000000    -4.570000000    -4.566000000
H     0.366000000    -3.724000000    -5.427000000
O    -3.763000000    -0.404000000    -1.836000000
H    -3.128000000     0.241000000    -2.147000000
H    -3.593000000    -0.473000000    -0.896000000
O     0.091000000     4.921000000     0.870000000
H     0.616000000     5.207000000     1.617000000
H     0.279000000     5.562000000     0.185000000
O    -0.767000000     0.137000000     7.460000000
H    -1.090000000     1.019000000     7.276000000
H    -1.203000000    -0.113000000     8.275000000
O     2.539000000     1.574000000     7.475000000
H     3.239000000     2.195000000     7.678000000
H     1.736000000     2.091000000     7.529000000
O     2.035000000     1.791000000    -2.658000000
H     1.091000000     1.649000000    -2.581000000
H     2.325000000     1.137000000    -3.294000000
O     2.147000000    -4.446000000     6.083000000
H     2.614000000    -5.280000000     6.124000000
H     2.780000000    -3.834000000     5.708000000
O     3.375000000     4.924000000     1.858000000
H     2.857000000     4.136000000     2.022000000
H     3.742000000     4.792000000     0.984000000
O     4.485000000    -1.853000000     1.970000000
H     3.762000000    -1.486000000     2.477000000
H     5.209000000    -1.241000000     2.107000000
O    -0.842000000    -5.393000000    -0.590000000
H     0.099000000    -5.318000000    -0.747000000
H    -1.046000000    -4.660000000    -0.008000000
O    -3.201000000    -0.149000000     0.702000000
H    -2.864000000    -0.737000000     1.377000000
H    -2.420000000     0.250000000     0.319000000
O    -4.015000000    -1.204000000     4.590000000
H    -3.359000000    -0.529000000     4.764000000
H    -3.948000000    -1.802000000     5.335000000
O    -5.007000000    -0.168000000    -4.455000000
H    -4.427000000    -0.807000000    -4.870000000
H    -4.880000000    -0.304000000    -3.516000000
O    -5.580000000     1.222000000     0.659000000
H    -4.745000000     0.760000000     0.583000000
H    -5.386000000     1.977000000     1.215000000
O    -2.878000000    -2.716000000     6.650000000
H    -2.815000000    -2.805000000     7.601000000
H    -2.013000000    -2.407000000     6.381000000
O    -1.206000000     3.352000000    -5.179000000
H    -1.130000000     3.485000000    -4.234000000
H    -1.310000000     4.234000000    -5.537000000
O    -2.024000000     4.345000000     2.552000000
H    -1.692000000     4.206000000     1.665000000
H    -1.280000000     4.711000000     3.031000000
O     2.079000000    -3.658000000     3.269000000
H     1.967000000    -2.708000000     3.269000000
H     1.191000000    -4.004000000     3.360000000
O     3.404000000    -4.635000000     1.366000000
H     4.027000000    -3.920000000     1.235000000
H     2.891000000    -4.369000000     2.130000000
O     2.179000000    -2.191000000     8.383000000
H     2.726000000    -1.407000000     8.350000000
H     1.945000000    -2.359000000     7.470000000
O     5.327000000    -0.956000000     5.019000000
H     5.293000000    -1.888000000     4.804000000
H     4.410000000    -0.695000000     5.101000000
O    -1.125000000     0.916000000    -6.315000000
H    -0.986000000     1.792000000    -5.954000000
H    -0.673000000     0.332000000    -5.707000000
O     0.309000000     5.824000000     3.708000000
H     0.806000000     5.008000000     3.660000000
H     0.134000000     5.944000000     4.641000000
O    -1.184000000     4.132000000    -2.707000000
H    -0.313000000     4.112000000    -2.310000000
H    -1.591000000     4.922000000    -2.351000000
