158
-3047.27818
C     0.563000000     0.168000000     1.375000000
H     1.104000000     0.405000000     2.287000000
C    -0.543000000     0.911000000     0.898000000
H    -0.911000000     1.785000000     1.428000000
C    -1.065000000     0.596000000    -0.380000000
H    -1.876000000     1.147000000    -0.799000000
C    -0.452000000    -0.475000000    -1.125000000
H    -0.750000000    -0.729000000    -2.139000000
C     0.710000000    -1.085000000    -0.654000000
H     1.261000000    -1.670000000    -1.386000000
C     1.245000000    -0.789000000     0.599000000
C     2.552000000    -1.508000000     0.991000000
O     2.958000000    -2.560000000     0.498000000
O     3.185000000    -0.900000000     1.858000000
O    -3.852000000     3.256000000    -1.119000000
H    -4.408000000     2.539000000    -0.813000000
H    -3.967000000     3.945000000    -0.465000000
O     1.494000000    -5.029000000    -0.293000000
H     1.653000000    -4.380000000     0.392000000
H     2.337000000    -5.470000000    -0.405000000
O     5.156000000    -2.546000000    -0.737000000
H     4.360000000    -2.563000000    -0.206000000
H     5.541000000    -3.414000000    -0.618000000
O    -0.746000000    -2.975000000    -5.333000000
H    -0.586000000    -2.034000000    -5.404000000
H     0.027000000    -3.315000000    -4.882000000
O     3.866000000    -0.192000000     4.273000000
H     3.554000000    -0.547000000     3.440000000
H     3.504000000     0.694000000     4.305000000
O     4.408000000    -0.808000000     6.935000000
H     3.937000000    -1.625000000     7.099000000
H     4.221000000    -0.604000000     6.019000000
O    -3.967000000     5.336000000     0.613000000
H    -3.389000000     5.622000000     1.320000000
H    -4.792000000     5.794000000     0.778000000
O     2.518000000     2.379000000     2.391000000
H     2.630000000     2.397000000     1.441000000
H     3.292000000     2.827000000     2.732000000
O    -1.040000000     0.025000000     4.480000000
H    -0.197000000     0.462000000     4.602000000
H    -0.896000000    -0.573000000     3.747000000
O    -0.455000000    -6.980000000     0.705000000
H     0.078000000    -6.198000000     0.564000000
H     0.072000000    -7.527000000     1.287000000
O     2.554000000     4.968000000    -0.738000000
H     3.480000000     5.050000000    -0.964000000
H     2.401000000     4.024000000    -0.693000000
O     0.493000000    -2.363000000     3.416000000
H     0.652000000    -3.204000000     3.844000000
H    -0.436000000    -2.381000000     3.188000000
O    -2.238000000     5.490000000     3.185000000
H    -2.603000000     4.821000000     3.765000000
H    -1.497000000     5.059000000     2.759000000
O    -4.566000000    -0.883000000     3.072000000
H    -3.787000000    -1.439000000     3.037000000
H    -4.279000000    -0.045000000     2.708000000
O     1.073000000    -4.134000000    -3.881000000
H     0.973000000    -4.083000000    -2.931000000
H     1.243000000    -5.060000000    -4.055000000
O     3.438000000    -3.338000000     6.612000000
H     3.549000000    -3.136000000     5.683000000
H     2.665000000    -3.901000000     6.645000000
O    -1.968000000     3.644000000    -6.006000000
H    -2.329000000     4.500000000    -6.237000000
H    -2.543000000     3.322000000    -5.311000000
O    -0.674000000    -4.522000000    -1.828000000
H    -1.238000000    -3.956000000    -1.300000000
H     0.075000000    -4.708000000    -1.262000000
O     5.952000000     2.634000000     1.407000000
H     5.171000000     2.924000000     1.877000000
H     5.817000000     1.696000000     1.274000000
O     6.774000000    -1.134000000     4.082000000
H     5.872000000    -0.899000000     4.299000000
H     6.710000000    -2.016000000     3.715000000
O    -3.216000000    -3.122000000    -0.102000000
H    -3.605000000    -2.387000000    -0.576000000
H    -3.910000000    -3.781000000    -0.071000000
O    -0.645000000    -0.034000000    -5.843000000
H    -1.516000000     0.028000000    -5.449000000
H    -0.116000000     0.596000000    -5.353000000
O     0.201000000     4.370000000     2.221000000
H     0.680000000     3.571000000     2.001000000
H     0.712000000     5.074000000     1.821000000
O    -5.628000000    -2.279000000    -1.341000000
H    -6.444000000    -1.941000000    -0.971000000
H    -5.906000000    -2.816000000    -2.083000000
O     2.135000000     2.329000000    -0.438000000
H     1.411000000     1.812000000    -0.083000000
H     2.470000000     1.804000000    -1.165000000
O     2.872000000     0.775000000    -2.872000000
H     2.430000000    -0.006000000    -3.207000000
H     3.750000000     0.734000000    -3.250000000
O    -6.121000000     2.054000000     0.554000000
H    -6.831000000     2.119000000     1.192000000
H    -5.397000000     1.661000000     1.041000000
O     6.626000000    -4.962000000    -0.796000000
H     6.973000000    -4.748000000    -1.661000000
H     7.370000000    -5.339000000    -0.326000000
O    -3.463000000     1.651000000     2.312000000
H    -3.343000000     2.375000000     2.928000000
H    -2.587000000     1.487000000     1.963000000
O     1.286000000    -0.467000000     5.953000000
H     1.285000000    -1.147000000     5.280000000
H     1.569000000     0.324000000     5.495000000
O    -6.692000000     2.167000000    -2.639000000
H    -6.946000000     2.141000000    -1.716000000
H    -5.884000000     1.655000000    -2.680000000
O     3.517000000    -3.026000000     3.690000000
H     3.316000000    -2.234000000     3.193000000
H     4.087000000    -3.534000000     3.112000000
O    -2.206000000     6.432000000    -1.613000000
H    -1.793000000     7.048000000    -1.008000000
H    -3.127000000     6.421000000    -1.352000000
O     5.659000000    -2.752000000    -3.517000000
H     4.777000000    -2.884000000    -3.864000000
H     5.521000000    -2.489000000    -2.607000000
O    -3.370000000     0.092000000    -5.229000000
H    -3.833000000    -0.638000000    -5.640000000
H    -3.998000000     0.814000000    -5.248000000
O     0.815000000     2.227000000    -4.181000000
H     1.579000000     2.023000000    -3.642000000
H     0.625000000     3.145000000    -3.989000000
O    -4.534000000     0.277000000    -2.515000000
H    -4.941000000    -0.589000000    -2.512000000
H    -3.654000000     0.127000000    -2.861000000
O    -3.303000000     0.464000000     5.974000000
H    -2.721000000     0.292000000     6.715000000
H    -2.765000000     0.293000000     5.202000000
O    -3.630000000     2.772000000    -4.067000000
H    -4.325000000     3.315000000    -3.695000000
H    -3.277000000     2.290000000    -3.319000000
O     1.431000000     1.758000000     4.665000000
H     1.431000000     2.629000000     5.061000000
H     1.640000000     1.914000000     3.744000000
O     3.980000000    -6.286000000    -0.588000000
H     4.119000000    -7.202000000    -0.830000000
H     4.836000000    -5.874000000    -0.710000000
O     2.517000000    -1.777000000    -4.361000000
H     2.098000000    -2.588000000    -4.073000000
H     3.098000000    -2.047000000    -5.072000000
O    -2.254000000     2.952000000     4.385000000
H    -2.820000000     2.502000000     5.012000000
H    -1.403000000     2.998000000     4.820000000
O     2.926000000    -7.209000000     2.231000000
H     2.806000000    -7.339000000     3.172000000
H     3.465000000    -6.420000000     2.165000000
O    -0.603000000     4.696000000    -3.215000000
H    -1.068000000     4.260000000    -3.929000000
H    -1.262000000     4.797000000    -2.527000000
O     5.635000000    -0.110000000     0.704000000
H     4.932000000    -0.251000000     1.339000000
H     5.462000000    -0.746000000     0.010000000
O    -2.246000000    -2.697000000     2.565000000
H    -2.488000000    -3.604000000     2.752000000
H    -2.506000000    -2.564000000     1.653000000
O     3.807000000    -4.777000000     1.672000000
H     3.385000000    -4.025000000     1.257000000
H     4.256000000    -5.225000000     0.955000000
