158
-3046.46053
C    -1.248000000     0.812000000    -0.019000000
H    -2.204000000     1.328000000    -0.047000000
C    -1.129000000    -0.569000000    -0.143000000
H    -1.934000000    -1.299000000    -0.177000000
C     0.134000000    -1.204000000    -0.172000000
H     0.236000000    -2.299000000    -0.154000000
C     1.276000000    -0.406000000    -0.152000000
H     2.252000000    -0.884000000    -0.157000000
C     1.159000000     0.982000000     0.103000000
H     2.053000000     1.549000000     0.349000000
C    -0.108000000     1.583000000     0.118000000
C    -0.197000000     3.062000000     0.381000000
O     0.730000000     3.781000000     0.725000000
O    -1.270000000     3.557000000     0.414000000
O    -2.828000000    -1.232000000    -2.616000000
H    -2.046000000    -0.680000000    -2.597000000
H    -3.492000000    -0.724000000    -2.150000000
O    -1.052000000     7.217000000    -0.847000000
H    -1.600000000     7.485000000    -1.584000000
H    -0.447000000     6.575000000    -1.219000000
O    -1.718000000    -4.862000000    -1.940000000
H    -2.429000000    -4.221000000    -1.931000000
H    -1.976000000    -5.498000000    -2.607000000
O     3.402000000     3.771000000     0.312000000
H     2.484000000     3.676000000     0.566000000
H     3.865000000     3.915000000     1.138000000
O     0.901000000     5.932000000     2.247000000
H     0.705000000     5.164000000     1.710000000
H     1.631000000     6.358000000     1.798000000
O     4.198000000    -6.192000000     0.236000000
H     3.525000000    -6.261000000     0.914000000
H     4.647000000    -5.368000000     0.429000000
O     2.901000000     2.342000000     4.585000000
H     3.144000000     1.491000000     4.220000000
H     2.659000000     2.154000000     5.492000000
O    -5.592000000    -3.803000000    -1.955000000
H    -5.769000000    -3.569000000    -1.044000000
H    -4.814000000    -3.294000000    -2.186000000
O     2.270000000    -3.544000000    -3.207000000
H     3.146000000    -3.616000000    -2.829000000
H     2.194000000    -4.304000000    -3.783000000
O     0.334000000    -7.350000000    -2.472000000
H     0.007000000    -7.963000000    -1.814000000
H     0.430000000    -6.522000000    -2.001000000
O     4.837000000     3.347000000     2.695000000
H     4.190000000     3.251000000     3.394000000
H     5.350000000     4.115000000     2.947000000
O    -2.102000000    -5.391000000     0.892000000
H    -1.437000000    -5.197000000     0.231000000
H    -2.422000000    -4.532000000     1.169000000
O     3.873000000    -0.232000000     3.682000000
H     3.346000000    -0.866000000     4.169000000
H     4.552000000    -0.759000000     3.260000000
O     2.575000000     5.607000000     4.607000000
H     2.222000000     6.273000000     5.198000000
H     1.962000000     5.590000000     3.872000000
O     5.146000000    -2.954000000    -1.472000000
H     4.621000000    -2.940000000    -0.672000000
H     6.028000000    -3.179000000    -1.175000000
O     0.106000000    -0.384000000    -3.446000000
H     0.234000000    -0.773000000    -2.581000000
H     0.732000000    -0.839000000    -4.009000000
O    -4.138000000    -0.349000000     2.736000000
H    -4.249000000    -0.266000000     1.789000000
H    -3.720000000     0.471000000     3.001000000
O     3.779000000    -3.046000000     0.966000000
H     3.476000000    -2.321000000     1.512000000
H     3.672000000    -3.822000000     1.516000000
O     1.714000000    -1.815000000    -5.128000000
H     1.913000000    -2.580000000    -4.587000000
H     2.119000000    -2.008000000    -5.974000000
O    -1.174000000    -2.791000000     4.260000000
H    -1.545000000    -3.577000000     4.663000000
H    -1.338000000    -2.096000000     4.897000000
O    -3.635000000     3.649000000    -0.484000000
H    -2.724000000     3.697000000    -0.194000000
H    -3.788000000     4.482000000    -0.932000000
O    -5.236000000    -0.285000000    -0.096000000
H    -5.101000000     0.563000000    -0.519000000
H    -6.001000000    -0.154000000     0.464000000
O     0.602000000     2.710000000     3.459000000
H     0.832000000     3.313000000     2.752000000
H     1.415000000     2.598000000     3.952000000
O     6.590000000     0.535000000    -2.354000000
H     6.913000000     1.435000000    -2.321000000
H     5.646000000     0.614000000    -2.216000000
O    -3.992000000    -0.901000000    -5.069000000
H    -3.341000000    -0.961000000    -4.370000000
H    -3.782000000    -1.627000000    -5.656000000
O     4.403000000     2.041000000    -1.398000000
H     4.157000000     2.767000000    -0.826000000
H     3.570000000     1.705000000    -1.730000000
O     0.232000000    -0.257000000     2.935000000
H    -0.046000000    -0.568000000     2.074000000
H     0.301000000     0.692000000     2.837000000
O     2.198000000     1.285000000    -2.788000000
H     1.576000000     1.931000000    -3.123000000
H     1.650000000     0.572000000    -2.460000000
O     1.424000000    -3.212000000     3.163000000
H     1.817000000    -2.967000000     4.001000000
H     0.503000000    -2.968000000     3.250000000
O     0.623000000     5.319000000    -1.656000000
H     0.604000000     4.688000000    -0.937000000
H     1.235000000     4.943000000    -2.289000000
O    -2.376000000     2.449000000     2.751000000
H    -2.165000000     2.654000000     1.840000000
H    -1.632000000     2.783000000     3.250000000
O    -1.865000000     4.527000000    -2.862000000
H    -2.736000000     4.919000000    -2.802000000
H    -1.346000000     4.997000000    -2.209000000
O     1.229000000    -7.842000000     1.602000000
H     1.267000000    -6.888000000     1.534000000
H     0.325000000    -8.029000000     1.854000000
O    -2.480000000     5.880000000     1.185000000
H    -1.993000000     5.096000000     0.930000000
H    -2.076000000     6.587000000     0.682000000
O     2.755000000     7.686000000     1.270000000
H     1.969000000     8.077000000     0.888000000
H     3.262000000     8.433000000     1.590000000
O     6.264000000     1.420000000     1.165000000
H     5.640000000     1.951000000     1.659000000
H     5.986000000     1.510000000     0.253000000
O     1.331000000    -5.145000000     1.232000000
H     1.568000000    -4.597000000     1.981000000
H     1.259000000    -4.532000000     0.501000000
O    -5.865000000     1.997000000     1.441000000
H    -5.562000000     2.688000000     0.852000000
H    -6.654000000     1.653000000     1.021000000
O     3.699000000     0.727000000    -5.043000000
H     3.309000000     0.923000000    -4.191000000
H     3.826000000    -0.221000000    -5.036000000
O    -0.063000000     7.462000000     4.234000000
H    -0.763000000     6.849000000     4.462000000
H     0.275000000     7.140000000     3.399000000
O    -3.766000000     7.379000000     2.857000000
H    -3.473000000     6.783000000     2.168000000
H    -3.520000000     8.249000000     2.542000000
O     5.173000000    -1.974000000    -4.122000000
H     4.879000000    -1.883000000    -3.216000000
H     5.651000000    -2.803000000    -4.136000000
O    -4.391000000     1.436000000    -1.963000000
H    -5.015000000     1.733000000    -2.624000000
H    -4.092000000     2.239000000    -1.537000000
O     4.092000000     6.299000000    -0.994000000
H     4.062000000     5.348000000    -1.096000000
H     3.698000000     6.460000000    -0.136000000
O     0.771000000    -4.693000000    -1.340000000
H     1.254000000    -4.161000000    -1.973000000
H    -0.114000000    -4.750000000    -1.700000000
O    -4.801000000     3.330000000     3.737000000
H    -5.464000000     2.799000000     3.295000000
H    -3.968000000     2.932000000     3.483000000
O    -3.128000000    -3.056000000     2.346000000
H    -3.643000000    -2.286000000     2.586000000
H    -2.240000000    -2.852000000     2.638000000
O    -0.019000000     3.003000000    -3.953000000
H    -0.752000000     3.392000000    -3.475000000
H    -0.431000000     2.407000000    -4.578000000
