158
-3032.90389
C     0.256000000    -1.312000000     0.660000000
H     0.453000000    -2.334000000     0.975000000
C     0.199000000    -1.052000000    -0.713000000
H     0.414000000    -1.911000000    -1.342000000
C    -0.098000000     0.168000000    -1.190000000
H    -0.157000000     0.340000000    -2.330000000
C    -0.450000000     1.211000000    -0.324000000
H    -0.722000000     2.184000000    -0.724000000
C    -0.165000000     1.063000000     1.021000000
H    -0.328000000     1.954000000     1.621000000
C     0.150000000    -0.232000000     1.543000000
C     0.260000000    -0.517000000     2.994000000
O     0.058000000     0.399000000     3.795000000
O     0.725000000    -1.565000000     3.492000000
O     2.647000000    -4.819000000     0.721000000
H     2.686000000    -4.433000000     1.596000000
H     3.542000000    -4.750000000     0.389000000
O     2.478000000     3.507000000    -7.003000000
H     2.765000000     4.382000000    -6.742000000
H     2.221000000     3.085000000    -6.184000000
O     1.885000000     4.279000000     3.926000000
H     1.398000000     4.786000000     3.276000000
H     2.643000000     4.824000000     4.137000000
O     1.928000000     1.471000000     5.135000000
H     1.252000000     1.074000000     4.586000000
H     1.989000000     2.374000000     4.824000000
O     4.254000000     1.838000000    -2.287000000
H     5.131000000     1.488000000    -2.132000000
H     3.687000000     1.328000000    -1.708000000
O     4.149000000    -1.341000000    -5.408000000
H     3.683000000    -0.511000000    -5.306000000
H     4.751000000    -1.190000000    -6.137000000
O    -2.738000000    -3.172000000     1.824000000
H    -1.869000000    -3.555000000     1.947000000
H    -3.310000000    -3.922000000     1.661000000
O     1.170000000     0.005000000    -5.808000000
H     0.698000000    -0.253000000    -5.016000000
H     1.967000000     0.425000000    -5.486000000
O     0.021000000    -5.061000000     0.754000000
H    -0.316000000    -4.718000000    -0.073000000
H     0.972000000    -4.991000000     0.673000000
O    -1.290000000    -3.608000000     5.882000000
H    -0.599000000    -3.879000000     5.278000000
H    -1.425000000    -2.680000000     5.690000000
O    -5.331000000     0.105000000     0.632000000
H    -4.384000000    -0.031000000     0.664000000
H    -5.685000000    -0.735000000     0.343000000
O     1.579000000    -1.951000000     5.981000000
H     2.061000000    -2.773000000     5.890000000
H     1.243000000    -1.772000000     5.103000000
O     0.262000000    -0.313000000     7.965000000
H     0.303000000    -0.703000000     7.092000000
H    -0.367000000    -0.855000000     8.441000000
O     2.658000000     4.762000000     0.115000000
H     2.682000000     3.807000000     0.168000000
H     3.532000000     5.008000000    -0.190000000
O     3.399000000    -4.701000000    -3.630000000
H     3.751000000    -4.042000000    -3.032000000
H     4.123000000    -5.312000000    -3.768000000
O     0.708000000    -5.733000000    -2.247000000
H     1.597000000    -5.449000000    -2.458000000
H     0.161000000    -4.970000000    -2.436000000
O    -2.798000000    -0.517000000     0.982000000
H    -1.855000000    -0.355000000     0.972000000
H    -2.880000000    -1.442000000     1.213000000
O    -1.772000000     6.019000000     0.403000000
H    -2.190000000     6.719000000    -0.099000000
H    -0.858000000     6.034000000     0.120000000
O    -2.331000000     1.633000000     6.967000000
H    -2.191000000     0.791000000     6.533000000
H    -1.629000000     1.688000000     7.616000000
O    -1.808000000     2.867000000    -2.884000000
H    -1.119000000     2.487000000    -3.429000000
H    -2.524000000     3.046000000    -3.493000000
O    -3.579000000    -1.540000000     3.985000000
H    -4.036000000    -0.763000000     3.664000000
H    -3.512000000    -2.112000000     3.220000000
O    -0.049000000    -3.941000000     3.518000000
H     0.196000000    -3.021000000     3.428000000
H    -0.089000000    -4.268000000     2.619000000
O     2.625000000     0.838000000    -0.614000000
H     1.687000000     0.684000000    -0.495000000
H     2.965000000     0.943000000     0.274000000
O     3.509000000     1.375000000    -5.087000000
H     3.405000000     1.460000000    -4.139000000
H     4.229000000     1.968000000    -5.303000000
O    -2.467000000     4.164000000     2.710000000
H    -1.968000000     4.630000000     2.039000000
H    -1.814000000     3.637000000     3.170000000
O    -5.316000000     3.825000000     2.718000000
H    -5.751000000     4.473000000     2.164000000
H    -4.383000000     3.940000000     2.533000000
O     0.904000000     3.256000000    -4.576000000
H     1.688000000     3.605000000    -4.151000000
H     0.446000000     4.028000000    -4.907000000
O    -0.731000000    -7.482000000     1.544000000
H    -0.766000000    -6.633000000     1.104000000
H    -0.855000000    -7.277000000     2.470000000
O    -3.160000000     3.298000000    -0.677000000
H    -2.508000000     3.901000000    -0.320000000
H    -2.766000000     2.970000000    -1.485000000
O    -5.761000000     2.604000000    -0.589000000
H    -5.536000000     1.713000000    -0.320000000
H    -4.921000000     3.060000000    -0.637000000
O     0.935000000     4.393000000     6.508000000
H     1.215000000     4.594000000     5.615000000
H     0.544000000     3.522000000     6.446000000
O     3.202000000    -1.097000000     8.194000000
H     3.400000000    -1.862000000     8.735000000
H     2.344000000    -1.287000000     7.815000000
O     3.671000000     1.038000000     2.046000000
H     3.479000000     0.161000000     2.379000000
H     3.881000000     1.549000000     2.827000000
O     1.278000000     6.276000000     2.111000000
H     0.355000000     6.113000000     1.919000000
H     1.750000000     5.855000000     1.393000000
O    -1.182000000    -3.823000000    -2.657000000
H    -0.968000000    -3.183000000    -3.336000000
H    -1.741000000    -3.344000000    -2.045000000
O     0.221000000     1.385000000    -7.847000000
H     0.560000000     0.794000000    -7.174000000
H     0.923000000     2.021000000    -7.983000000
O    -0.734000000     5.505000000    -3.291000000
H    -1.430000000     6.161000000    -3.327000000
H    -1.194000000     4.675000000    -3.160000000
O    -0.838000000    -2.144000000    -4.713000000
H    -0.517000000    -2.215000000    -5.613000000
H    -1.602000000    -1.571000000    -4.776000000
O     3.710000000    -0.583000000     4.659000000
H     2.868000000    -0.954000000     4.925000000
H     3.646000000     0.344000000     4.888000000
O     2.989000000    -2.991000000     3.096000000
H     2.252000000    -2.384000000     3.026000000
H     3.639000000    -2.520000000     3.616000000
O    -1.600000000    -0.841000000     5.526000000
H    -0.936000000    -0.422000000     4.978000000
H    -2.360000000    -0.935000000     4.952000000
O     2.998000000     4.180000000    -3.261000000
H     3.283000000     3.391000000    -2.801000000
H     3.462000000     4.893000000    -2.822000000
O    -1.268000000     2.663000000     4.672000000
H    -1.790000000     2.573000000     5.470000000
H    -0.721000000     1.878000000     4.654000000
O     0.616000000     6.170000000    -0.898000000
H     0.211000000     5.819000000    -1.691000000
H     1.411000000     5.650000000    -0.785000000
O    -1.595000000     3.255000000    -6.465000000
H    -1.245000000     2.387000000    -6.665000000
H    -1.068000000     3.853000000    -6.994000000
O    -3.666000000     3.728000000    -4.455000000
H    -3.016000000     3.673000000    -5.155000000
H    -4.264000000     3.000000000    -4.625000000
O    -3.258000000     0.382000000    -6.129000000
H    -3.857000000    -0.328000000    -5.897000000
H    -3.750000000     1.181000000    -5.942000000
O     3.404000000     1.524000000     7.481000000
H     2.847000000     1.411000000     6.711000000
H     3.254000000     0.736000000     8.002000000
