158
-3017.02594
C     0.478000000    -0.894000000     0.941000000
H     0.882000000    -1.707000000     1.538000000
C    -0.063000000    -1.243000000    -0.294000000
H    -0.265000000    -2.274000000    -0.573000000
C    -0.490000000    -0.203000000    -1.060000000
H    -0.970000000    -0.502000000    -1.957000000
C    -0.344000000     1.165000000    -0.697000000
H    -0.822000000     1.903000000    -1.337000000
C     0.236000000     1.420000000     0.499000000
H     0.357000000     2.470000000     0.750000000
C     0.671000000     0.410000000     1.376000000
C     1.462000000     0.613000000     2.609000000
O     0.976000000     1.361000000     3.424000000
O     2.441000000    -0.086000000     2.947000000
O    -6.104000000    -3.596000000     0.012000000
H    -6.101000000    -4.136000000     0.802000000
H    -5.494000000    -4.035000000    -0.581000000
O     4.247000000    -2.109000000     2.795000000
H     3.597000000    -1.417000000     2.915000000
H     3.739000000    -2.871000000     2.517000000
O    -1.522000000    -1.804000000     3.480000000
H    -1.354000000    -2.569000000     2.929000000
H    -0.711000000    -1.681000000     3.973000000
O    -3.027000000    -4.678000000    -4.496000000
H    -3.245000000    -4.446000000    -3.593000000
H    -3.050000000    -5.635000000    -4.510000000
O     5.021000000     0.919000000     3.314000000
H     4.133000000     0.565000000     3.365000000
H     5.144000000     1.126000000     2.388000000
O    -4.352000000    -5.038000000    -1.441000000
H    -3.741000000    -5.742000000    -1.655000000
H    -5.147000000    -5.254000000    -1.929000000
O    -4.622000000    -0.283000000    -5.606000000
H    -4.197000000    -1.073000000    -5.940000000
H    -5.425000000    -0.207000000    -6.121000000
O    -2.560000000    -3.037000000    -0.999000000
H    -1.795000000    -3.146000000    -1.563000000
H    -3.035000000    -3.865000000    -1.077000000
O    -2.332000000     3.697000000     0.722000000
H    -1.882000000     2.957000000     0.315000000
H    -3.253000000     3.574000000     0.493000000
O     3.615000000    -4.964000000     2.395000000
H     2.844000000    -5.506000000     2.563000000
H     4.353000000    -5.504000000     2.676000000
O    -0.497000000    -3.089000000    -5.642000000
H    -0.358000000    -3.447000000    -4.765000000
H    -0.402000000    -2.143000000    -5.533000000
O     2.476000000    -4.997000000    -1.173000000
H     3.401000000    -4.845000000    -0.978000000
H     2.482000000    -5.481000000    -1.999000000
O    -5.976000000     1.107000000    -0.832000000
H    -5.340000000     0.399000000    -0.930000000
H    -6.766000000     0.781000000    -1.263000000
O     0.825000000    -1.396000000     4.608000000
H     1.507000000    -1.906000000     5.046000000
H     1.298000000    -0.682000000     4.180000000
O     6.477000000    -2.731000000     4.134000000
H     5.765000000    -2.427000000     3.571000000
H     6.795000000    -1.938000000     4.566000000
O     3.294000000    -1.350000000    -5.587000000
H     3.795000000    -0.883000000    -4.918000000
H     3.824000000    -2.122000000    -5.788000000
O     0.899000000    -5.146000000     1.182000000
H     1.568000000    -4.980000000     0.517000000
H     0.686000000    -6.073000000     1.081000000
O    -0.280000000    -3.834000000    -2.226000000
H    -0.652000000    -4.642000000    -1.872000000
H     0.667000000    -3.953000000    -2.147000000
O     2.360000000     0.265000000    -1.867000000
H     2.643000000     1.173000000    -1.976000000
H     1.476000000     0.331000000    -1.506000000
O    -0.437000000     5.567000000     1.861000000
H     0.069000000     4.827000000     2.198000000
H    -1.238000000     5.172000000     1.517000000
O     0.019000000    -5.249000000     4.333000000
H    -0.757000000    -5.785000000     4.169000000
H     0.192000000    -4.816000000     3.496000000
O     4.053000000     5.152000000     3.727000000
H     4.475000000     5.261000000     2.875000000
H     4.363000000     4.303000000     4.041000000
O    -2.042000000    -4.374000000     1.372000000
H    -1.560000000    -4.293000000     0.550000000
H    -2.845000000    -3.873000000     1.229000000
O     2.900000000    -2.742000000     5.405000000
H     2.605000000    -3.572000000     5.781000000
H     3.720000000    -2.959000000     4.962000000
O    -0.970000000     6.561000000    -0.836000000
H    -1.922000000     6.539000000    -0.739000000
H    -0.640000000     6.110000000    -0.059000000
O     0.185000000    -0.345000000    -5.573000000
H     1.059000000    -0.365000000    -5.183000000
H     0.282000000     0.208000000    -6.349000000
O    -4.011000000     2.901000000    -1.528000000
H    -3.843000000     2.279000000    -2.236000000
H    -4.770000000     2.542000000    -1.069000000
O     2.092000000     5.007000000     6.785000000
H     2.126000000     4.091000000     6.511000000
H     2.270000000     5.503000000     5.986000000
O     4.919000000     2.778000000     5.465000000
H     4.279000000     2.582000000     6.149000000
H     4.793000000     2.087000000     4.814000000
O    -0.716000000     4.590000000     4.519000000
H     0.044000000     4.517000000     3.943000000
H    -1.094000000     3.710000000     4.531000000
O    -2.557000000    -0.025000000     1.311000000
H    -1.644000000    -0.235000000     1.116000000
H    -2.796000000    -0.629000000     2.014000000
O     5.983000000    -1.870000000     0.661000000
H     5.409000000    -1.986000000     1.418000000
H     5.395000000    -1.908000000    -0.093000000
O    -3.541000000     0.932000000    -3.530000000
H    -3.708000000     0.452000000    -4.341000000
H    -3.642000000     0.278000000    -2.839000000
O     1.018000000     4.125000000    -4.741000000
H     0.389000000     3.561000000    -4.293000000
H     1.218000000     4.813000000    -4.106000000
O    -2.630000000     0.081000000     5.955000000
H    -2.188000000     0.927000000     6.029000000
H    -2.655000000    -0.095000000     5.014000000
O    -1.693000000    -6.114000000    -1.722000000
H    -1.922000000    -6.805000000    -2.343000000
H    -1.369000000    -6.582000000    -0.952000000
O     6.937000000    -0.044000000     4.878000000
H     6.149000000     0.203000000     4.393000000
H     6.679000000     0.014000000     5.799000000
O     4.314000000    -1.603000000    -1.623000000
H     4.537000000    -1.306000000    -2.506000000
H     3.525000000    -1.111000000    -1.397000000
O     2.072000000     2.615000000     5.508000000
H     2.404000000     1.981000000     6.144000000
H     1.568000000     2.090000000     4.887000000
O    -1.645000000     1.995000000     4.003000000
H    -2.170000000     1.800000000     3.227000000
H    -0.802000000     1.575000000     3.834000000
O    -3.665000000     5.651000000    -0.850000000
H    -3.698000000     4.767000000    -1.217000000
H    -4.566000000     5.833000000    -0.583000000
O     1.509000000     3.951000000     2.672000000
H     2.003000000     4.449000000     3.324000000
H     1.622000000     3.037000000     2.934000000
O    -3.724000000    -2.922000000    -6.443000000
H    -3.354000000    -3.423000000    -5.716000000
H    -3.000000000    -2.827000000    -7.062000000
O    -3.149000000     4.539000000    -3.996000000
H    -3.069000000     4.269000000    -4.911000000
H    -2.842000000     3.784000000    -3.495000000
O     3.153000000     2.827000000    -2.037000000
H     2.819000000     3.676000000    -1.745000000
H     4.102000000     2.942000000    -2.071000000
O    -3.811000000    -0.583000000    -1.006000000
H    -3.371000000    -1.432000000    -1.049000000
H    -3.421000000    -0.149000000    -0.247000000
O    -1.059000000     2.201000000    -4.148000000
H    -1.402000000     1.605000000    -3.482000000
H    -1.468000000     1.910000000    -4.963000000
O     4.300000000    -0.524000000     6.640000000
H     3.713000000    -1.185000000     6.273000000
H     4.866000000    -1.013000000     7.238000000
