158
-3030.61393
C     0.094000000    -1.078000000     1.012000000
H     0.258000000    -1.921000000     1.679000000
C     0.065000000    -1.251000000    -0.349000000
H     0.197000000    -2.204000000    -0.855000000
C    -0.079000000    -0.158000000    -1.229000000
H    -0.075000000    -0.354000000    -2.339000000
C    -0.233000000     1.105000000    -0.675000000
H    -0.293000000     1.909000000    -1.404000000
C    -0.240000000     1.255000000     0.732000000
H    -0.328000000     2.261000000     1.134000000
C     0.045000000     0.211000000     1.587000000
C     0.283000000     0.356000000     3.102000000
O     0.372000000     1.433000000     3.680000000
O     0.626000000    -0.685000000     3.610000000
O     3.115000000    -2.002000000     3.759000000
H     2.234000000    -1.629000000     3.790000000
H     2.976000000    -2.948000000     3.811000000
O    -3.557000000    -1.594000000     3.757000000
H    -3.804000000    -2.281000000     4.376000000
H    -3.029000000    -2.045000000     3.098000000
O    -4.555000000    -3.100000000    -2.561000000
H    -5.484000000    -3.329000000    -2.598000000
H    -4.108000000    -3.935000000    -2.422000000
O     2.757000000     2.627000000     3.197000000
H     2.603000000     3.561000000     3.056000000
H     1.890000000     2.227000000     3.118000000
O    -5.344000000     1.458000000    -2.745000000
H    -4.872000000     0.635000000    -2.868000000
H    -6.235000000     1.192000000    -2.517000000
O    -1.312000000     1.283000000    -7.103000000
H    -2.223000000     1.038000000    -7.265000000
H    -0.956000000     0.558000000    -6.589000000
O     2.392000000    -4.289000000     4.687000000
H     2.403000000    -4.831000000     5.475000000
H     2.683000000    -4.875000000     3.988000000
O    -0.733000000    -2.026000000    -4.821000000
H    -0.059000000    -2.527000000    -4.362000000
H    -0.666000000    -1.144000000    -4.456000000
O     2.589000000    -4.286000000    -5.991000000
H     1.877000000    -3.988000000    -6.557000000
H     2.297000000    -4.071000000    -5.106000000
O     2.770000000    -3.021000000    -1.102000000
H     2.312000000    -2.240000000    -0.789000000
H     3.698000000    -2.792000000    -1.048000000
O     2.628000000    -5.607000000    -1.632000000
H     2.941000000    -4.786000000    -1.251000000
H     3.425000000    -6.074000000    -1.882000000
O    -5.262000000     1.168000000     1.577000000
H    -4.515000000     0.996000000     1.004000000
H    -5.918000000     0.522000000     1.316000000
O    -2.170000000    -2.708000000    -6.987000000
H    -1.644000000    -2.158000000    -7.567000000
H    -1.941000000    -2.414000000    -6.105000000
O    -0.708000000    -2.876000000     4.347000000
H    -0.925000000    -3.250000000     3.493000000
H    -0.096000000    -2.167000000     4.149000000
O     2.223000000     1.108000000    -3.766000000
H     2.779000000     1.710000000    -4.262000000
H     2.699000000     0.278000000    -3.779000000
O    -0.012000000    -5.690000000    -0.069000000
H     0.792000000    -5.622000000    -0.583000000
H     0.107000000    -6.481000000     0.458000000
O     1.430000000    -3.764000000    -3.541000000
H     1.816000000    -3.625000000    -2.677000000
H     1.290000000    -4.709000000    -3.592000000
O     3.270000000    -1.471000000    -3.953000000
H     3.941000000    -2.025000000    -3.553000000
H     2.454000000    -1.956000000    -3.829000000
O     2.650000000     2.863000000    -1.270000000
H     1.782000000     3.252000000    -1.373000000
H     2.631000000     2.083000000    -1.823000000
O     2.683000000     4.478000000    -4.211000000
H     2.991000000     4.988000000    -3.461000000
H     1.741000000     4.387000000    -4.067000000
O    -0.897000000     5.808000000     0.790000000
H    -0.470000000     5.665000000     1.635000000
H    -1.787000000     5.479000000     0.912000000
O    -1.676000000    -1.668000000     6.579000000
H    -1.420000000    -2.096000000     5.762000000
H    -2.258000000    -2.297000000     7.006000000
O     2.085000000     5.189000000     1.741000000
H     2.749000000     4.915000000     1.108000000
H     2.139000000     6.145000000     1.745000000
O    -1.683000000    -3.737000000     1.595000000
H    -1.415000000    -4.506000000     1.092000000
H    -2.302000000    -3.281000000     1.025000000
O     1.096000000    -2.454000000     7.364000000
H     0.653000000    -2.854000000     8.113000000
H     0.397000000    -2.022000000     6.875000000
O     4.114000000     0.170000000    -5.898000000
H     3.899000000    -0.445000000    -5.197000000
H     4.600000000     0.870000000    -5.461000000
O    -0.405000000     0.633000000    -4.466000000
H     0.455000000     0.882000000    -4.127000000
H    -0.973000000     1.370000000    -4.241000000
O     0.764000000     6.175000000     5.230000000
H    -0.132000000     6.498000000     5.324000000
H     0.686000000     5.224000000     5.310000000
O     3.643000000     3.601000000     6.761000000
H     3.575000000     3.359000000     7.684000000
H     2.755000000     3.496000000     6.420000000
O    -2.433000000     4.651000000     4.846000000
H    -2.058000000     4.791000000     3.976000000
H    -2.256000000     3.730000000     5.037000000
O     5.241000000    -1.542000000     2.030000000
H     4.483000000    -1.751000000     2.577000000
H     4.970000000    -0.774000000     1.528000000
O    -3.560000000     2.624000000    -1.087000000
H    -4.345000000     2.432000000    -1.601000000
H    -3.348000000     1.795000000    -0.657000000
O    -0.038000000     4.512000000    -4.079000000
H    -0.767000000     3.903000000    -3.962000000
H    -0.085000000     5.091000000    -3.318000000
O    -2.720000000    -5.239000000    -0.860000000
H    -3.162000000    -5.985000000    -0.456000000
H    -1.797000000    -5.492000000    -0.884000000
O     4.954000000     1.669000000     5.235000000
H     4.281000000     1.325000000     4.648000000
H     4.490000000     2.297000000     5.789000000
O     4.513000000     0.375000000     0.274000000
H     4.940000000     0.484000000    -0.575000000
H     3.916000000     1.120000000     0.340000000
O    -2.222000000    -5.300000000     4.050000000
H    -3.033000000    -5.026000000     4.479000000
H    -2.172000000    -4.758000000     3.263000000
O     1.169000000     3.351000000     5.718000000
H     0.564000000     2.998000000     6.371000000
H     1.108000000     2.741000000     4.983000000
O    -1.906000000     1.636000000     5.661000000
H    -2.665000000     1.341000000     5.159000000
H    -1.169000000     1.153000000     5.286000000
O    -5.570000000    -0.688000000    -5.164000000
H    -5.072000000    -0.297000000    -5.881000000
H    -4.993000000    -0.614000000    -4.404000000
O    -0.300000000     4.222000000     3.061000000
H     0.570000000     4.436000000     2.725000000
H    -0.241000000     3.299000000     3.309000000
O    -3.683000000    -0.601000000    -3.185000000
H    -3.952000000    -1.437000000    -2.805000000
H    -2.727000000    -0.623000000    -3.162000000
O     0.193000000     1.791000000     8.477000000
H     0.463000000     1.087000000     7.887000000
H    -0.639000000     1.491000000     8.843000000
O     0.487000000     5.151000000    -1.492000000
H     0.088000000     5.530000000    -0.709000000
H     1.227000000     5.727000000    -1.687000000
O     3.597000000    -1.393000000     6.594000000
H     3.731000000    -1.633000000     5.677000000
H     2.775000000    -1.819000000     6.836000000
O    -3.387000000     0.100000000    -0.012000000
H    -3.603000000    -0.680000000     0.500000000
H    -2.470000000    -0.021000000    -0.257000000
O    -2.138000000     2.817000000    -3.372000000
H    -2.975000000     2.517000000    -3.727000000
H    -2.331000000     3.040000000    -2.461000000
O     1.246000000     0.512000000     6.211000000
H     2.153000000     0.206000000     6.186000000
H     0.875000000     0.227000000     5.376000000
