158
-3048.83917
C     1.277000000     0.225000000     0.746000000
H     2.207000000     0.160000000     1.305000000
C     0.825000000    -0.986000000     0.216000000
H     1.328000000    -1.945000000     0.308000000
C    -0.284000000    -1.072000000    -0.599000000
H    -0.477000000    -1.958000000    -1.220000000
C    -1.056000000     0.078000000    -0.794000000
H    -1.986000000     0.021000000    -1.353000000
C    -0.600000000     1.321000000    -0.241000000
H    -1.156000000     2.239000000    -0.415000000
C     0.550000000     1.385000000     0.569000000
C     0.860000000     2.679000000     1.317000000
O    -0.077000000     3.393000000     1.593000000
O     1.843000000     2.802000000     1.952000000
O     3.951000000    -2.846000000     4.136000000
H     3.087000000    -2.636000000     3.782000000
H     4.072000000    -2.228000000     4.856000000
O     4.326000000     1.885000000     1.525000000
H     3.470000000     2.313000000     1.515000000
H     4.525000000     1.725000000     0.603000000
O    -2.789000000    -3.296000000    -5.533000000
H    -1.870000000    -3.144000000    -5.752000000
H    -2.792000000    -3.419000000    -4.584000000
O     4.488000000     1.565000000    -1.207000000
H     3.767000000     1.426000000    -1.822000000
H     5.071000000     0.819000000    -1.349000000
O     5.152000000    -3.349000000     1.155000000
H     5.031000000    -3.637000000     2.059000000
H     5.021000000    -2.401000000     1.186000000
O     2.561000000     5.376000000     1.119000000
H     2.230000000     4.499000000     1.313000000
H     2.863000000     5.323000000     0.212000000
O    -1.345000000     0.547000000     4.208000000
H    -0.442000000     0.834000000     4.350000000
H    -1.309000000     0.033000000     3.402000000
O    -5.279000000    -2.155000000    -4.408000000
H    -5.218000000    -2.462000000    -3.504000000
H    -4.679000000    -2.721000000    -4.894000000
O    -5.862000000    -3.433000000    -2.000000000
H    -5.261000000    -3.151000000    -1.311000000
H    -6.728000000    -3.180000000    -1.681000000
O     1.306000000     1.196000000     4.329000000
H     2.118000000     1.233000000     4.834000000
H     1.475000000     1.743000000     3.562000000
O     5.222000000    -0.771000000     1.669000000
H     5.569000000    -0.595000000     0.794000000
H     4.773000000     0.038000000     1.915000000
O     1.842000000     6.851000000     3.333000000
H     2.359000000     7.640000000     3.170000000
H     2.131000000     6.233000000     2.662000000
O     1.114000000    -5.770000000    -0.288000000
H     1.613000000    -6.299000000     0.334000000
H     1.703000000    -5.050000000    -0.516000000
O     2.967000000    -3.633000000    -0.627000000
H     3.493000000    -3.406000000     0.140000000
H     3.229000000    -2.997000000    -1.294000000
O     3.513000000    -1.656000000    -2.518000000
H     2.840000000    -0.976000000    -2.536000000
H     4.287000000    -1.237000000    -2.895000000
O    -4.245000000     3.585000000    -1.510000000
H    -3.881000000     3.649000000    -0.627000000
H    -4.494000000     4.482000000    -1.732000000
O    -1.195000000    -1.714000000     2.610000000
H    -1.679000000    -2.494000000     2.880000000
H    -1.125000000    -1.792000000     1.659000000
O     5.772000000     4.127000000     1.892000000
H     5.417000000     4.365000000     2.748000000
H     5.602000000     3.188000000     1.815000000
O    -2.799000000    -3.321000000    -2.684000000
H    -3.215000000    -3.071000000    -1.859000000
H    -2.023000000    -3.815000000    -2.421000000
O     6.835000000    -1.970000000     3.676000000
H     6.218000000    -1.654000000     3.016000000
H     6.368000000    -2.677000000     4.122000000
O    -0.819000000     5.702000000    -2.114000000
H    -1.053000000     5.882000000    -1.203000000
H     0.125000000     5.854000000    -2.153000000
O    -0.262000000    -4.432000000    -2.116000000
H     0.389000000    -4.196000000    -2.777000000
H     0.206000000    -5.015000000    -1.518000000
O    -2.665000000    -4.039000000     3.519000000
H    -2.185000000    -4.588000000     2.899000000
H    -3.256000000    -4.644000000     3.966000000
O    -2.374000000     4.938000000     5.516000000
H    -2.202000000     4.288000000     4.834000000
H    -3.290000000     4.798000000     5.754000000
O     1.358000000    -2.281000000     3.734000000
H     0.860000000    -2.917000000     4.247000000
H     0.692000000    -1.720000000     3.336000000
O     5.482000000     4.034000000     4.619000000
H     5.214000000     4.886000000     4.965000000
H     6.381000000     3.923000000     4.927000000
O    -4.127000000     0.234000000     1.233000000
H    -4.872000000     0.112000000     0.644000000
H    -3.368000000     0.284000000     0.652000000
O     4.628000000     4.528000000    -0.660000000
H     4.715000000     3.620000000    -0.951000000
H     5.029000000     4.541000000     0.209000000
O    -2.341000000     3.577000000    -3.521000000
H    -3.102000000     3.570000000    -2.941000000
H    -1.816000000     4.319000000    -3.219000000
O    -4.251000000    -5.918000000    -2.545000000
H    -4.741000000    -5.097000000    -2.583000000
H    -4.463000000    -6.285000000    -1.687000000
O     0.685000000     4.197000000     4.244000000
H     0.766000000     3.758000000     3.398000000
H     1.073000000     5.061000000     4.104000000
O     2.057000000     0.433000000    -2.565000000
H     1.591000000     1.132000000    -3.024000000
H     1.379000000    -0.013000000    -2.056000000
O    -1.808000000    -3.897000000     0.634000000
H    -1.495000000    -4.514000000     1.296000000
H    -1.223000000    -4.029000000    -0.112000000
O    -2.023000000     7.179000000     3.146000000
H    -1.668000000     6.359000000     2.804000000
H    -2.085000000     7.751000000     2.380000000
O    -2.939000000     6.906000000    -0.379000000
H    -2.759000000     6.085000000     0.080000000
H    -3.182000000     6.636000000    -1.265000000
O    -3.268000000     4.099000000     0.933000000
H    -2.617000000     3.503000000     1.303000000
H    -3.602000000     4.586000000     1.686000000
O    -1.436000000    -7.025000000    -2.356000000
H    -0.801000000    -6.319000000    -2.470000000
H    -2.245000000    -6.581000000    -2.101000000
O    -0.323000000     5.981000000     1.136000000
H     0.546000000     6.359000000     1.271000000
H    -0.213000000     5.051000000     1.337000000
O     2.038000000    -4.516000000    -4.150000000
H     2.495000000    -4.589000000    -3.313000000
H     2.634000000    -4.013000000    -4.705000000
O    -2.101000000     3.087000000     3.384000000
H    -1.994000000     2.234000000     3.805000000
H    -1.262000000     3.250000000     2.955000000
O    -0.066000000    -3.499000000    -5.628000000
H     0.674000000    -3.967000000    -5.242000000
H     0.333000000    -2.881000000    -6.240000000
O    -0.838000000    -5.745000000     2.380000000
H    -0.011000000    -5.997000000     2.792000000
H    -1.381000000    -6.531000000     2.434000000
O     3.984000000     1.719000000     5.068000000
H     4.289000000     2.045000000     5.915000000
H     4.336000000     2.341000000     4.432000000
O    -3.941000000    -2.424000000    -0.241000000
H    -4.287000000    -1.901000000     0.482000000
H    -3.279000000    -2.984000000     0.164000000
O    -5.407000000     1.101000000    -1.182000000
H    -5.661000000     0.945000000    -2.091000000
H    -5.130000000     2.017000000    -1.164000000
O    -0.986000000     2.259000000    -5.354000000
H    -1.483000000     1.442000000    -5.402000000
H    -1.463000000     2.792000000    -4.718000000
O     1.503000000     2.771000000     7.051000000
H     0.740000000     3.335000000     7.175000000
H     1.537000000     2.618000000     6.107000000
O    -2.543000000    -0.240000000    -6.029000000
H    -2.748000000    -1.167000000    -5.912000000
H    -2.341000000    -0.155000000    -6.961000000
