158
-3061.83123
C     1.051000000    -0.505000000     0.962000000
H     1.659000000    -1.029000000     1.696000000
C     0.337000000    -1.272000000     0.045000000
H     0.521000000    -2.340000000    -0.041000000
C    -0.642000000    -0.659000000    -0.814000000
H    -1.251000000    -1.388000000    -1.326000000
C    -0.786000000     0.693000000    -0.793000000
H    -1.615000000     1.160000000    -1.319000000
C    -0.034000000     1.443000000     0.113000000
H    -0.216000000     2.505000000     0.255000000
C     0.891000000     0.859000000     0.961000000
C     1.631000000     1.682000000     1.993000000
O     1.219000000     2.771000000     2.276000000
O     2.564000000     1.209000000     2.608000000
O     5.058000000    -0.034000000     2.556000000
H     4.230000000     0.387000000     2.786000000
H     4.985000000    -0.206000000     1.617000000
O    -1.927000000    -3.022000000    -3.724000000
H    -1.540000000    -2.199000000    -4.022000000
H    -1.187000000    -3.524000000    -3.381000000
O     5.457000000     0.494000000    -0.371000000
H     4.715000000     0.533000000    -0.975000000
H     6.121000000    -0.012000000    -0.840000000
O     4.191000000     3.323000000     3.498000000
H     3.706000000     2.502000000     3.572000000
H     4.519000000     3.488000000     4.382000000
O     0.033000000    -1.443000000     6.106000000
H     0.954000000    -1.188000000     6.052000000
H    -0.294000000    -1.352000000     5.210000000
O    -4.769000000    -1.029000000     0.063000000
H    -5.436000000    -1.501000000     0.562000000
H    -4.281000000    -1.715000000    -0.393000000
O     2.421000000    -0.654000000     5.203000000
H     3.280000000    -0.380000000     5.524000000
H     2.456000000    -0.498000000     4.259000000
O    -0.684000000     6.389000000     1.834000000
H    -1.442000000     6.482000000     1.257000000
H     0.021000000     6.095000000     1.257000000
O     6.739000000    -0.474000000     4.559000000
H     7.373000000     0.214000000     4.357000000
H     6.117000000    -0.448000000     3.832000000
O     1.547000000     4.464000000     4.509000000
H     2.359000000     4.969000000     4.562000000
H     1.542000000     4.114000000     3.618000000
O     3.090000000    -5.360000000     0.411000000
H     3.804000000    -5.171000000     1.019000000
H     3.268000000    -4.804000000    -0.347000000
O     4.517000000    -3.203000000    -2.660000000
H     3.923000000    -2.511000000    -2.949000000
H     5.389000000    -2.814000000    -2.730000000
O    -2.300000000    -6.032000000    -5.142000000
H    -1.500000000    -5.660000000    -4.772000000
H    -3.007000000    -5.530000000    -4.738000000
O    -2.362000000     4.072000000     0.674000000
H    -1.454000000     4.103000000     0.976000000
H    -2.881000000     4.045000000     1.478000000
O    -5.861000000     0.344000000    -2.328000000
H    -6.721000000    -0.040000000    -2.161000000
H    -5.294000000    -0.039000000    -1.659000000
O     3.029000000     7.151000000     2.713000000
H     3.161000000     6.446000000     2.079000000
H     3.358000000     6.796000000     3.538000000
O    -0.867000000    -0.757000000     3.706000000
H    -1.622000000    -0.171000000     3.661000000
H    -0.923000000    -1.282000000     2.908000000
O     7.657000000     1.552000000     3.103000000
H     7.655000000     2.509000000     3.107000000
H     6.942000000     1.314000000     2.513000000
O    -3.501000000    -2.991000000    -1.398000000
H    -3.934000000    -3.746000000    -0.998000000
H    -2.732000000    -3.359000000    -1.833000000
O     0.446000000    -1.398000000    -3.704000000
H     0.652000000    -1.355000000    -2.770000000
H     0.121000000    -0.524000000    -3.918000000
O     0.661000000     5.026000000    -1.984000000
H     0.699000000     4.642000000    -1.108000000
H     1.469000000     4.737000000    -2.408000000
O    -0.141000000    -4.917000000    -3.677000000
H     0.692000000    -4.459000000    -3.791000000
H     0.045000000    -5.592000000    -3.023000000
O     2.687000000    -1.272000000    -5.791000000
H     2.230000000    -0.747000000    -6.448000000
H     1.987000000    -1.637000000    -5.248000000
O     1.604000000     2.326000000    -3.554000000
H     1.341000000     2.821000000    -4.330000000
H     0.840000000     1.791000000    -3.341000000
O    -2.705000000     4.830000000    -1.787000000
H    -3.635000000     5.054000000    -1.741000000
H    -2.497000000     4.490000000    -0.916000000
O     2.308000000    -3.308000000     6.281000000
H     2.682000000    -2.515000000     5.897000000
H     1.933000000    -3.017000000     7.112000000
O     0.557000000    -4.949000000     4.109000000
H     0.442000000    -5.502000000     4.882000000
H    -0.056000000    -4.226000000     4.239000000
O     5.156000000     2.980000000     0.910000000
H     5.249000000     2.027000000     0.892000000
H     4.814000000     3.170000000     1.784000000
O    -3.928000000     1.686000000    -4.481000000
H    -4.604000000     1.254000000    -3.959000000
H    -3.739000000     1.068000000    -5.187000000
O    -1.560000000     3.486000000    -3.855000000
H    -2.462000000     3.395000000    -4.163000000
H    -1.632000000     4.010000000    -3.057000000
O    -2.296000000     4.791000000     3.713000000
H    -2.062000000     5.053000000     4.603000000
H    -1.670000000     5.251000000     3.154000000
O    -4.213000000    -2.570000000    -5.125000000
H    -3.593000000    -2.916000000    -4.483000000
H    -4.947000000    -3.183000000    -5.103000000
O     0.462000000     1.921000000     5.165000000
H     1.018000000     1.228000000     4.809000000
H     0.547000000     2.642000000     4.540000000
O     3.237000000     0.792000000    -1.912000000
H     2.949000000     1.437000000    -2.559000000
H     2.465000000     0.639000000    -1.367000000
O     0.849000000    -6.158000000     1.222000000
H     0.832000000    -5.909000000     2.146000000
H     1.755000000    -6.010000000     0.951000000
O    -2.260000000    -3.489000000     2.330000000
H    -2.250000000    -2.555000000     2.120000000
H    -2.291000000    -3.519000000     3.286000000
O     0.278000000     6.818000000     4.501000000
H    -0.276000000     6.911000000     3.726000000
H     0.847000000     6.075000000     4.301000000
O    -3.586000000    -6.476000000    -0.362000000
H    -2.778000000    -5.971000000    -0.454000000
H    -3.293000000    -7.383000000    -0.276000000
O     1.207000000     4.838000000     0.582000000
H     2.102000000     5.169000000     0.646000000
H     1.177000000     4.106000000     1.199000000
O     2.435000000    -4.659000000    -3.317000000
H     2.805000000    -5.500000000    -3.586000000
H     3.194000000    -4.128000000    -3.079000000
O    -2.266000000     1.340000000     5.011000000
H    -2.640000000     1.864000000     5.720000000
H    -1.362000000     1.646000000     4.939000000
O     3.734000000     5.400000000     0.580000000
H     3.849000000     5.704000000    -0.321000000
H     4.261000000     4.603000000     0.633000000
O     4.903000000     0.256000000     6.215000000
H     5.036000000     1.203000000     6.181000000
H     5.479000000    -0.092000000     5.534000000
O    -1.395000000    -5.059000000    -0.029000000
H    -1.791000000    -4.642000000     0.737000000
H    -0.608000000    -5.484000000     0.311000000
O    -2.386000000    -0.656000000     1.437000000
H    -3.173000000    -0.111000000     1.433000000
H    -2.009000000    -0.536000000     0.565000000
O    -0.805000000     1.011000000    -4.184000000
H    -1.186000000     1.887000000    -4.254000000
H    -1.459000000     0.433000000    -4.576000000
O     1.228000000     1.244000000     7.670000000
H     0.992000000     1.356000000     6.749000000
H     1.902000000     0.564000000     7.663000000
O    -3.034000000    -0.311000000    -6.017000000
H    -3.412000000    -1.140000000    -5.724000000
H    -2.624000000    -0.518000000    -6.857000000
