158
-3030.91275
C     1.076000000    -0.507000000     0.925000000
H     1.809000000    -1.040000000     1.525000000
C     0.265000000    -1.261000000     0.052000000
H     0.450000000    -2.313000000    -0.144000000
C    -0.742000000    -0.702000000    -0.746000000
H    -1.456000000    -1.286000000    -1.333000000
C    -0.946000000     0.654000000    -0.594000000
H    -1.736000000     1.133000000    -1.166000000
C    -0.139000000     1.466000000     0.256000000
H    -0.225000000     2.546000000     0.342000000
C     0.893000000     0.895000000     0.978000000
C     1.716000000     1.716000000     1.846000000
O     1.939000000     2.862000000     1.530000000
O     2.254000000     1.209000000     2.790000000
O     3.844000000    -3.846000000     2.849000000
H     4.145000000    -4.093000000     3.723000000
H     4.163000000    -2.951000000     2.730000000
O     4.178000000    -0.312000000     2.027000000
H     3.440000000     0.136000000     2.440000000
H     4.216000000     0.053000000     1.143000000
O    -0.881000000    -0.388000000    -5.970000000
H    -0.783000000     0.314000000    -5.327000000
H    -0.291000000    -0.143000000    -6.683000000
O     4.067000000     1.296000000    -0.363000000
H     4.890000000     1.500000000    -0.806000000
H     3.416000000     1.273000000    -1.065000000
O     5.908000000     1.972000000     3.739000000
H     5.238000000     1.635000000     4.333000000
H     5.908000000     2.918000000     3.888000000
O     1.165000000    -2.424000000     4.625000000
H     1.798000000    -2.195000000     3.944000000
H     0.344000000    -2.032000000     4.330000000
O    -4.856000000    -0.709000000    -2.403000000
H    -4.298000000    -1.408000000    -2.745000000
H    -5.520000000    -1.164000000    -1.886000000
O     3.894000000     0.475000000     4.801000000
H     4.486000000    -0.128000000     4.350000000
H     3.210000000     0.664000000     4.159000000
O    -1.463000000     5.843000000    -0.585000000
H    -2.248000000     5.792000000    -0.040000000
H    -0.742000000     5.912000000     0.041000000
O     6.057000000    -2.379000000     2.110000000
H     6.304000000    -2.030000000     2.966000000
H     5.405000000    -1.762000000     1.778000000
O     0.435000000     6.189000000    -2.586000000
H    -0.246000000     6.226000000    -1.915000000
H     1.134000000     6.749000000    -2.250000000
O     3.088000000     4.562000000     3.170000000
H     3.962000000     4.312000000     3.468000000
H     2.854000000     3.893000000     2.527000000
O     1.597000000    -5.255000000     2.255000000
H     2.353000000    -4.679000000     2.364000000
H     1.385000000    -5.542000000     3.143000000
O     3.238000000    -5.010000000    -1.731000000
H     2.939000000    -4.129000000    -1.958000000
H     3.969000000    -5.175000000    -2.326000000
O     2.770000000    -2.544000000    -2.502000000
H     2.072000000    -1.898000000    -2.611000000
H     3.571000000    -2.024000000    -2.447000000
O    -2.733000000    -3.019000000    -4.880000000
H    -2.105000000    -2.312000000    -5.033000000
H    -2.373000000    -3.503000000    -4.137000000
O    -4.882000000     3.951000000    -0.192000000
H    -5.838000000     3.917000000    -0.214000000
H    -4.681000000     4.655000000     0.425000000
O    -4.855000000     1.302000000    -4.373000000
H    -4.509000000     0.738000000    -5.066000000
H    -5.083000000     0.699000000    -3.666000000
O     3.115000000     7.039000000     2.081000000
H     3.125000000     6.085000000     2.158000000
H     3.778000000     7.336000000     2.704000000
O    -0.715000000    -1.057000000     3.213000000
H    -1.280000000    -0.295000000     3.340000000
H    -0.875000000    -1.327000000     2.309000000
O     4.679000000    -0.457000000    -2.892000000
H     3.914000000    -0.058000000    -2.477000000
H     4.481000000    -0.440000000    -3.828000000
O    -2.156000000    -4.215000000    -2.706000000
H    -2.119000000    -3.981000000    -1.778000000
H    -1.861000000    -5.125000000    -2.735000000
O     0.362000000     2.132000000    -3.987000000
H    -0.432000000     2.657000000    -4.080000000
H     1.019000000     2.748000000    -3.660000000
O    -7.003000000    -0.796000000     0.571000000
H    -6.242000000    -0.288000000     0.290000000
H    -7.716000000    -0.159000000     0.607000000
O     2.990000000     6.203000000    -1.865000000
H     3.104000000     5.439000000    -1.300000000
H     3.711000000     6.786000000    -1.630000000
O     1.456000000    -5.191000000    -4.600000000
H     1.179000000    -4.295000000    -4.789000000
H     2.303000000    -5.277000000    -5.038000000
O    -6.699000000    -2.545000000    -2.022000000
H    -6.837000000    -3.469000000    -2.229000000
H    -7.220000000    -2.397000000    -1.232000000
O    -3.797000000     4.891000000    -2.869000000
H    -2.941000000     5.246000000    -2.630000000
H    -4.005000000     4.273000000    -2.169000000
O    -3.441000000     5.504000000     1.580000000
H    -2.678000000     5.186000000     2.063000000
H    -4.075000000     5.735000000     2.258000000
O     3.585000000     4.330000000     0.089000000
H     2.974000000     3.921000000     0.701000000
H     3.991000000     3.596000000    -0.372000000
O    -2.128000000     3.084000000    -4.688000000
H    -3.021000000     2.759000000    -4.571000000
H    -2.153000000     3.980000000    -4.351000000
O    -0.964000000     5.159000000     2.732000000
H    -0.736000000     5.412000000     3.626000000
H    -0.217000000     5.442000000     2.205000000
O    -4.753000000    -1.389000000    -6.300000000
H    -4.177000000    -1.951000000    -5.782000000
H    -5.539000000    -1.917000000    -6.442000000
O     7.248000000     1.602000000     1.538000000
H     6.754000000     1.538000000     2.355000000
H     7.089000000     0.767000000     1.097000000
O     0.684000000     3.303000000     5.055000000
H     0.839000000     4.244000000     5.136000000
H     0.920000000     3.098000000     4.150000000
O     2.042000000     0.601000000    -2.105000000
H     1.726000000     0.678000000    -3.005000000
H     1.247000000     0.502000000    -1.580000000
O     1.742000000    -6.800000000    -0.108000000
H     1.584000000    -6.364000000     0.729000000
H     2.031000000    -6.099000000    -0.693000000
O    -3.374000000    -2.014000000     1.514000000
H    -3.541000000    -1.113000000     1.793000000
H    -3.150000000    -2.477000000     2.321000000
O    -2.755000000    -4.574000000     0.343000000
H    -2.688000000    -3.666000000     0.639000000
H    -3.652000000    -4.654000000     0.018000000
O    -4.154000000     0.431000000     2.486000000
H    -4.307000000     0.714000000     1.584000000
H    -3.461000000     1.011000000     2.804000000
O     0.905000000     5.249000000     0.809000000
H     1.687000000     5.783000000     0.948000000
H     1.230000000     4.349000000     0.788000000
O     1.255000000     6.499000000     4.549000000
H     0.982000000     7.389000000     4.324000000
H     2.187000000     6.474000000     4.333000000
O     1.948000000    -2.157000000    -5.312000000
H     2.152000000    -1.244000000    -5.514000000
H     2.586000000    -2.663000000    -5.814000000
O    -1.941000000     1.195000000     4.125000000
H    -2.388000000     2.022000000     4.307000000
H    -1.180000000     1.203000000     4.706000000
O     5.791000000     5.562000000     1.496000000
H     5.560000000     5.512000000     2.423000000
H     5.020000000     5.227000000     1.038000000
O    -0.966000000    -6.597000000     2.162000000
H    -1.618000000    -6.140000000     1.630000000
H    -0.319000000    -5.926000000     2.377000000
O    -4.697000000     0.978000000    -0.207000000
H    -4.590000000     0.706000000    -1.118000000
H    -4.723000000     1.934000000    -0.243000000
O     1.624000000     1.249000000     6.602000000
H     1.133000000     1.930000000     6.142000000
H     2.196000000     0.873000000     5.933000000
