158
-2999.51484
C     1.324000000    -0.440000000     0.512000000
H     2.317000000    -0.753000000     0.824000000
C     0.329000000    -1.299000000     0.066000000
H     0.535000000    -2.347000000    -0.137000000
C    -0.875000000    -0.736000000    -0.385000000
H    -1.618000000    -1.528000000    -0.707000000
C    -1.155000000     0.579000000    -0.315000000
H    -2.047000000     1.041000000    -0.728000000
C    -0.175000000     1.429000000     0.191000000
H    -0.394000000     2.492000000     0.235000000
C     1.067000000     0.971000000     0.644000000
C     2.117000000     1.905000000     1.172000000
O     1.970000000     3.087000000     1.276000000
O     3.232000000     1.436000000     1.317000000
O     4.754000000    -0.836000000     2.384000000
H     4.118000000    -1.144000000     3.030000000
H     4.279000000    -0.179000000     1.875000000
O     5.381000000     1.328000000    -0.077000000
H     4.603000000     1.196000000     0.464000000
H     5.039000000     1.626000000    -0.920000000
O     1.918000000     3.667000000    -2.951000000
H     2.328000000     4.523000000    -3.074000000
H     2.581000000     3.040000000    -3.242000000
O     3.438000000    -5.186000000     0.114000000
H     2.948000000    -4.575000000     0.665000000
H     4.044000000    -5.618000000     0.716000000
O     6.759000000     2.846000000     1.689000000
H     6.063000000     3.054000000     2.312000000
H     6.329000000     2.317000000     1.017000000
O     2.752000000    -1.841000000     4.146000000
H     2.655000000    -0.940000000     4.453000000
H     3.016000000    -2.332000000     4.924000000
O    -2.277000000    -0.516000000     3.259000000
H    -1.671000000    -0.399000000     3.990000000
H    -2.163000000     0.271000000     2.725000000
O    -5.169000000     1.372000000    -3.589000000
H    -4.882000000     0.571000000    -3.152000000
H    -4.963000000     2.071000000    -2.967000000
O    -0.352000000     0.493000000     4.949000000
H    -0.132000000     0.546000000     5.879000000
H     0.203000000     1.153000000     4.534000000
O     4.349000000     3.073000000     3.016000000
H     4.617000000     2.390000000     3.630000000
H     3.926000000     2.600000000     2.300000000
O     0.060000000     5.379000000     0.460000000
H    -0.095000000     5.830000000     1.290000000
H     0.954000000     5.045000000     0.532000000
O    -1.075000000     4.517000000    -2.446000000
H    -0.899000000     4.415000000    -1.511000000
H    -0.628000000     3.776000000    -2.856000000
O     2.743000000     5.707000000     2.053000000
H     3.605000000     5.710000000     2.468000000
H     2.676000000     4.843000000     1.646000000
O     2.055000000    -3.339000000     1.681000000
H     2.447000000    -2.709000000     2.286000000
H     1.148000000    -3.420000000     1.975000000
O     1.469000000    -4.009000000    -2.426000000
H     2.206000000    -3.481000000    -2.118000000
H     1.850000000    -4.869000000    -2.604000000
O     5.506000000     1.081000000     4.719000000
H     4.669000000     0.680000000     4.954000000
H     6.009000000     0.370000000     4.322000000
O    -4.828000000    -1.089000000     4.325000000
H    -4.074000000    -0.748000000     3.845000000
H    -5.410000000    -1.430000000     3.646000000
O     2.793000000     8.247000000     0.735000000
H     2.921000000     7.300000000     0.688000000
H     2.983000000     8.470000000     1.646000000
O    -6.506000000    -2.321000000     2.347000000
H    -7.241000000    -2.815000000     1.985000000
H    -5.783000000    -2.948000000     2.368000000
O    -4.091000000     1.508000000     2.025000000
H    -4.577000000     2.189000000     2.490000000
H    -3.279000000     1.936000000     1.755000000
O    -4.263000000    -0.365000000    -1.851000000
H    -4.165000000    -1.130000000    -1.285000000
H    -3.427000000    -0.300000000    -2.313000000
O    -2.154000000     3.761000000    -4.876000000
H    -2.721000000     3.899000000    -4.118000000
H    -1.400000000     4.329000000    -4.719000000
O    -0.631000000    -0.883000000    -6.196000000
H    -0.650000000    -0.950000000    -7.150000000
H    -1.159000000    -0.109000000    -5.999000000
O     3.583000000     4.589000000     5.241000000
H     2.904000000     5.256000000     5.141000000
H     3.722000000     4.254000000     4.356000000
O     2.721000000     0.742000000     5.084000000
H     2.951000000     1.074000000     5.951000000
H     2.323000000     1.490000000     4.639000000
O    -1.165000000    -2.987000000     2.661000000
H    -1.688000000    -3.405000000     3.346000000
H    -1.397000000    -2.060000000     2.715000000
O     4.439000000     4.751000000    -0.560000000
H     4.072000000     4.185000000     0.119000000
H     4.673000000     4.153000000    -1.270000000
O    -2.622000000    -5.902000000    -3.317000000
H    -2.688000000    -6.728000000    -2.838000000
H    -3.520000000    -5.575000000    -3.357000000
O    -2.912000000    -2.964000000    -6.634000000
H    -2.205000000    -3.398000000    -7.112000000
H    -2.515000000    -2.704000000    -5.803000000
O    -1.135000000    -6.772000000     2.138000000
H    -2.035000000    -7.057000000     1.980000000
H    -0.985000000    -6.084000000     1.490000000
O     5.049000000     2.741000000    -2.434000000
H     4.759000000     3.314000000    -3.144000000
H     5.961000000     2.541000000    -2.646000000
O    -0.099000000     1.544000000    -3.102000000
H     0.553000000     1.931000000    -2.517000000
H    -0.501000000     0.846000000    -2.584000000
O    -0.165000000    -5.827000000    -0.830000000
H    -0.960000000    -5.327000000    -0.649000000
H     0.399000000    -5.218000000    -1.305000000
O    -4.793000000     3.628000000    -1.897000000
H    -4.223000000     3.631000000    -1.128000000
H    -5.680000000     3.660000000    -1.538000000
O    -0.467000000    -3.467000000    -5.002000000
H    -0.423000000    -2.551000000    -5.276000000
H    -0.091000000    -3.472000000    -4.122000000
O    -4.667000000    -2.387000000    -0.399000000
H    -4.575000000    -3.122000000     0.207000000
H    -5.447000000    -2.596000000    -0.913000000
O     3.721000000    -1.570000000    -2.802000000
H     3.305000000    -0.741000000    -3.041000000
H     3.354000000    -2.207000000    -3.414000000
O    -4.741000000    -4.384000000     1.676000000
H    -5.448000000    -4.989000000     1.451000000
H    -4.341000000    -4.763000000     2.458000000
O    -2.712000000    -2.721000000    -3.174000000
H    -2.367000000    -2.992000000    -2.324000000
H    -2.263000000    -3.282000000    -3.806000000
O     0.326000000     7.368000000     2.878000000
H     0.259000000     8.300000000     2.670000000
H     1.239000000     7.147000000     2.695000000
O     7.222000000    -2.109000000     1.798000000
H     6.973000000    -2.964000000     1.447000000
H     6.390000000    -1.659000000     1.946000000
O    -5.572000000    -3.102000000    -4.333000000
H    -4.797000000    -2.607000000    -4.069000000
H    -5.513000000    -3.921000000    -3.841000000
O    -2.422000000     4.140000000     3.236000000
H    -1.812000000     3.869000000     3.922000000
H    -3.141000000     4.560000000     3.708000000
O     5.029000000    -2.980000000    -0.593000000
H     4.453000000    -2.428000000    -1.122000000
H     4.571000000    -3.818000000    -0.537000000
O    -2.291000000    -4.295000000     0.323000000
H    -3.185000000    -4.255000000     0.663000000
H    -1.748000000    -3.955000000     1.035000000
O    -3.539000000     4.492000000     0.418000000
H    -3.151000000     4.642000000     1.280000000
H    -3.541000000     5.354000000     0.003000000
O     1.137000000     2.846000000     4.066000000
H     0.567000000     3.457000000     4.534000000
H     1.279000000     3.257000000     3.214000000
O    -6.561000000     0.064000000     1.028000000
H    -6.622000000    -0.772000000     1.489000000
H    -5.628000000     0.278000000     1.040000000
