158
-3021.62964
C     1.198000000    -0.907000000     0.121000000
H     1.972000000    -1.668000000     0.057000000
C    -0.088000000    -1.324000000    -0.091000000
H    -0.368000000    -2.368000000    -0.206000000
C    -1.111000000    -0.360000000    -0.211000000
H    -2.116000000    -0.815000000    -0.350000000
C    -0.864000000     0.969000000    -0.091000000
H    -1.612000000     1.758000000    -0.113000000
C     0.455000000     1.423000000     0.122000000
H     0.603000000     2.473000000     0.359000000
C     1.473000000     0.428000000     0.221000000
C     2.755000000     0.922000000     0.684000000
O     2.924000000     2.069000000     1.077000000
O     3.724000000     0.247000000     0.599000000
O     4.364000000    -2.049000000     1.794000000
H     3.659000000    -2.311000000     2.385000000
H     4.063000000    -1.224000000     1.413000000
O     4.476000000    -0.528000000    -1.841000000
H     4.405000000    -0.183000000    -0.950000000
H     3.596000000    -0.844000000    -2.046000000
O    -1.335000000     1.290000000    -3.220000000
H    -0.476000000     1.010000000    -3.536000000
H    -1.293000000     1.165000000    -2.271000000
O    -4.652000000     4.805000000     1.523000000
H    -4.063000000     4.729000000     2.273000000
H    -4.316000000     5.554000000     1.030000000
O     6.301000000     1.401000000     0.523000000
H     6.744000000     1.534000000     1.361000000
H     5.371000000     1.359000000     0.747000000
O     2.239000000    -3.224000000     3.250000000
H     1.436000000    -2.706000000     3.311000000
H     2.570000000    -3.260000000     4.147000000
O    -3.809000000    -0.533000000     1.801000000
H    -3.358000000    -1.026000000     1.116000000
H    -3.959000000     0.330000000     1.415000000
O    -6.084000000     1.225000000    -3.460000000
H    -6.073000000     0.836000000    -2.586000000
H    -6.532000000     2.063000000    -3.344000000
O     0.261000000    -1.420000000     3.917000000
H     0.268000000    -1.353000000     4.871000000
H     0.272000000    -0.513000000     3.613000000
O     4.337000000     1.771000000     3.393000000
H     3.812000000     1.062000000     3.765000000
H     3.921000000     1.961000000     2.552000000
O     6.034000000    -3.020000000    -1.494000000
H     6.044000000    -3.085000000    -0.539000000
H     5.284000000    -2.459000000    -1.689000000
O    -2.713000000     3.027000000    -4.589000000
H    -3.619000000     2.835000000    -4.346000000
H    -2.207000000     2.307000000    -4.212000000
O     2.070000000     4.389000000     2.317000000
H     2.689000000     5.118000000     2.270000000
H     2.461000000     3.707000000     1.771000000
O     0.951000000    -4.977000000     0.909000000
H     1.428000000    -4.452000000     1.551000000
H     0.065000000    -4.615000000     0.915000000
O     2.336000000    -4.617000000    -3.505000000
H     2.572000000    -4.035000000    -4.227000000
H     3.152000000    -5.068000000    -3.285000000
O    -5.354000000    -0.849000000    -5.407000000
H    -5.657000000    -0.086000000    -4.915000000
H    -4.796000000    -1.325000000    -4.792000000
O     7.011000000    -1.657000000     3.259000000
H     6.275000000    -1.678000000     3.870000000
H     6.705000000    -2.149000000     2.497000000
O    -4.774000000     1.517000000     0.260000000
H    -5.630000000     1.627000000     0.676000000
H    -4.521000000     2.402000000    -0.004000000
O    -5.449000000    -1.053000000    -1.575000000
H    -4.931000000    -0.496000000    -0.993000000
H    -4.804000000    -1.611000000    -2.009000000
O     5.860000000     2.205000000    -2.243000000
H     6.132000000     1.683000000    -1.488000000
H     4.964000000     1.918000000    -2.422000000
O     2.134000000     5.633000000    -2.533000000
H     2.521000000     5.073000000    -1.860000000
H     1.697000000     5.025000000    -3.129000000
O     1.731000000     4.704000000     5.241000000
H     2.013000000     5.583000000     5.494000000
H     2.148000000     4.554000000     4.392000000
O    -0.439000000     3.515000000     4.772000000
H    -0.933000000     3.352000000     5.576000000
H     0.379000000     3.912000000     5.071000000
O     2.696000000    -0.170000000     4.946000000
H     2.110000000    -0.463000000     5.645000000
H     2.149000000     0.390000000     4.395000000
O    -1.121000000    -3.453000000     2.730000000
H    -0.652000000    -4.200000000     3.103000000
H    -0.849000000    -2.708000000     3.265000000
O     3.995000000     5.760000000     0.367000000
H     3.754000000     5.080000000    -0.262000000
H     4.885000000     5.531000000     0.637000000
O     6.682000000     0.936000000     4.726000000
H     6.638000000    -0.010000000     4.862000000
H     5.914000000     1.138000000     4.191000000
O    -2.493000000     5.962000000    -0.344000000
H    -1.778000000     6.219000000     0.238000000
H    -2.735000000     6.769000000    -0.798000000
O     3.137000000     3.528000000    -1.172000000
H     2.893000000     2.872000000    -0.518000000
H     3.228000000     3.032000000    -1.986000000
O    -4.777000000    -4.719000000    -1.254000000
H    -5.045000000    -5.620000000    -1.074000000
H    -5.024000000    -4.235000000    -0.466000000
O    -1.471000000    -6.918000000     1.660000000
H    -2.406000000    -6.967000000     1.855000000
H    -1.394000000    -6.198000000     1.034000000
O     3.293000000     1.893000000    -3.406000000
H     3.725000000     1.050000000    -3.549000000
H     2.788000000     2.042000000    -4.205000000
O     0.851000000    -0.767000000    -2.907000000
H     0.961000000    -0.659000000    -1.962000000
H     0.459000000    -1.634000000    -3.005000000
O    -1.452000000    -6.520000000    -2.164000000
H    -1.582000000    -5.883000000    -1.461000000
H    -1.700000000    -6.051000000    -2.961000000
O    -5.350000000     4.065000000    -3.090000000
H    -4.698000000     3.772000000    -2.453000000
H    -6.068000000     4.407000000    -2.557000000
O    -0.699000000    -3.566000000    -3.256000000
H    -0.598000000    -3.192000000    -4.131000000
H    -0.077000000    -4.293000000    -3.232000000
O    -5.467000000    -2.982000000     1.083000000
H    -5.139000000    -2.305000000     1.675000000
H    -6.417000000    -2.957000000     1.194000000
O    -4.023000000    -0.246000000     4.462000000
H    -3.772000000    -0.251000000     3.538000000
H    -4.601000000    -1.003000000     4.557000000
O    -3.207000000    -2.605000000    -2.317000000
H    -3.715000000    -3.404000000    -2.182000000
H    -2.369000000    -2.909000000    -2.665000000
O     4.907000000    -1.593000000     5.247000000
H     4.119000000    -1.108000000     5.002000000
H     4.580000000    -2.421000000     5.598000000
O     4.994000000    -4.425000000     0.607000000
H     4.352000000    -4.626000000    -0.074000000
H     4.729000000    -3.568000000     0.940000000
O    -6.838000000    -3.132000000    -2.915000000
H    -6.468000000    -2.503000000    -2.296000000
H    -6.639000000    -3.988000000    -2.534000000
O     6.559000000     4.466000000     0.000000000
H     6.130000000     3.799000000    -0.537000000
H     7.209000000     3.982000000     0.509000000
O     3.259000000    -5.953000000    -1.327000000
H     2.638000000    -5.480000000    -1.882000000
H     2.710000000    -6.504000000    -0.769000000
O    -1.881000000    -4.518000000     0.293000000
H    -2.308000000    -3.900000000    -0.299000000
H    -1.882000000    -4.076000000     1.142000000
O    -3.115000000     3.450000000    -1.816000000
H    -2.400000000     3.339000000    -2.443000000
H    -2.829000000     4.170000000    -1.254000000
O     0.871000000     1.334000000     3.509000000
H     0.239000000     2.033000000     3.679000000
H     1.429000000     1.681000000     2.813000000
O    -7.671000000     0.265000000     0.275000000
H    -8.437000000    -0.289000000     0.424000000
H    -7.209000000    -0.155000000    -0.451000000
