158
-3056.64359
C     0.729000000    -1.185000000     0.301000000
H     1.057000000    -2.200000000     0.512000000
C    -0.580000000    -1.092000000    -0.208000000
H    -1.166000000    -2.004000000    -0.282000000
C    -1.156000000     0.178000000    -0.397000000
H    -2.221000000     0.328000000    -0.641000000
C    -0.391000000     1.342000000    -0.258000000
H    -0.810000000     2.336000000    -0.396000000
C     0.931000000     1.201000000     0.149000000
H     1.552000000     2.053000000     0.413000000
C     1.480000000    -0.022000000     0.436000000
C     2.829000000    -0.242000000     1.078000000
O     3.601000000     0.626000000     1.376000000
O     3.170000000    -1.457000000     1.291000000
O     4.212000000    -3.733000000     1.737000000
H     4.029000000    -3.951000000     2.651000000
H     3.999000000    -2.802000000     1.666000000
O     3.064000000    -2.000000000    -1.876000000
H     3.254000000    -2.061000000    -0.940000000
H     3.852000000    -2.336000000    -2.303000000
O    -1.695000000     2.020000000    -4.045000000
H    -1.621000000     2.245000000    -4.972000000
H    -1.075000000     1.301000000    -3.922000000
O    -2.013000000     5.615000000     1.253000000
H    -1.932000000     4.895000000     1.878000000
H    -2.235000000     6.375000000     1.791000000
O     5.617000000    -1.027000000    -0.360000000
H     5.835000000    -0.204000000     0.078000000
H     4.950000000    -1.426000000     0.199000000
O     3.289000000    -4.333000000     4.068000000
H     2.513000000    -3.984000000     4.507000000
H     3.465000000    -5.161000000     4.516000000
O    -1.609000000     0.428000000     2.624000000
H    -0.709000000     0.139000000     2.773000000
H    -1.865000000     0.002000000     1.806000000
O    -4.392000000    -0.279000000    -1.925000000
H    -4.391000000    -0.466000000    -0.986000000
H    -4.366000000     0.676000000    -1.980000000
O     1.266000000    -2.556000000     5.205000000
H     1.502000000    -2.512000000     6.132000000
H     1.280000000    -1.646000000     4.911000000
O     5.842000000    -0.568000000     2.601000000
H     5.974000000    -1.459000000     2.924000000
H     4.891000000    -0.476000000     2.534000000
O     5.703000000     1.864000000     3.743000000
H     6.316000000     2.416000000     3.259000000
H     5.742000000     1.017000000     3.300000000
O     4.233000000     4.172000000     2.259000000
H     4.478000000     4.246000000     1.337000000
H     4.891000000     3.589000000     2.636000000
O    -3.811000000     0.711000000    -5.884000000
H    -3.381000000     0.193000000    -5.204000000
H    -3.633000000     1.619000000    -5.643000000
O     2.574000000     2.245000000     3.161000000
H     3.166000000     2.963000000     3.388000000
H     3.101000000     1.664000000     2.612000000
O     1.963000000    -5.628000000     0.868000000
H     2.652000000    -4.982000000     1.023000000
H     1.821000000    -5.606000000    -0.078000000
O    -2.613000000    -0.977000000    -4.075000000
H    -2.845000000    -1.117000000    -3.157000000
H    -2.543000000    -1.859000000    -4.441000000
O     6.941000000    -4.010000000     1.674000000
H     7.260000000    -4.878000000     1.921000000
H     5.988000000    -4.093000000     1.687000000
O    -3.635000000     4.858000000    -0.787000000
H    -4.397000000     5.337000000    -0.463000000
H    -2.932000000     5.086000000    -0.179000000
O    -4.675000000     1.918000000     0.663000000
H    -4.828000000     2.703000000     1.190000000
H    -4.320000000     2.249000000    -0.162000000
O     2.139000000     5.756000000     2.515000000
H     2.838000000     5.106000000     2.439000000
H     1.571000000     5.585000000     1.763000000
O    -4.251000000    -0.661000000     0.757000000
H    -4.452000000     0.197000000     1.130000000
H    -3.897000000    -1.164000000     1.491000000
O    -5.904000000     2.279000000    -3.774000000
H    -4.970000000     2.441000000    -3.911000000
H    -6.106000000     2.726000000    -2.952000000
O     2.341000000     3.562000000    -1.840000000
H     3.106000000     3.082000000    -1.522000000
H     1.960000000     3.954000000    -1.054000000
O     0.345000000     2.792000000     4.627000000
H     0.649000000     3.575000000     5.085000000
H     1.123000000     2.457000000     4.182000000
O    -6.320000000    -0.432000000    -3.731000000
H    -5.555000000    -0.626000000    -3.188000000
H    -6.314000000     0.521000000    -3.821000000
O     4.196000000    -0.159000000     5.425000000
H     3.584000000    -0.118000000     6.160000000
H     4.093000000     0.683000000     4.981000000
O    -0.800000000    -3.581000000     3.822000000
H    -1.359000000    -3.654000000     4.595000000
H     0.014000000    -3.201000000     4.149000000
O     0.840000000     5.575000000    -0.093000000
H    -0.089000000     5.764000000    -0.228000000
H     1.292000000     6.128000000    -0.731000000
O     4.295000000     1.751000000    -0.869000000
H     4.019000000     1.381000000    -0.031000000
H     5.245000000     1.840000000    -0.791000000
O    -5.162000000    -3.315000000     0.193000000
H    -4.950000000    -3.917000000     0.906000000
H    -4.816000000    -2.471000000     0.482000000
O     3.671000000     0.894000000    -3.457000000
H     3.770000000     1.173000000    -2.547000000
H     2.739000000     0.697000000    -3.547000000
O     1.237000000    -0.500000000    -3.118000000
H     0.781000000    -0.083000000    -2.387000000
H     1.948000000    -0.992000000    -2.707000000
O    -2.515000000    -6.474000000    -0.341000000
H    -2.050000000    -6.035000000     0.371000000
H    -2.866000000    -5.761000000    -0.874000000
O     7.057000000     3.227000000     1.913000000
H     7.453000000     4.081000000     2.084000000
H     6.761000000     3.276000000     1.004000000
O    -3.762000000     2.346000000    -2.014000000
H    -3.021000000     2.103000000    -2.569000000
H    -3.575000000     3.246000000    -1.746000000
O     1.387000000    -5.092000000    -1.936000000
H     0.864000000    -5.584000000    -2.569000000
H     1.993000000    -4.580000000    -2.473000000
O    -3.485000000    -2.288000000     2.707000000
H    -4.192000000    -2.336000000     3.351000000
H    -2.798000000    -2.849000000     3.065000000
O    -4.049000000     0.164000000     4.525000000
H    -3.524000000    -0.018000000     3.745000000
H    -4.730000000     0.765000000     4.221000000
O    -2.793000000    -3.630000000    -4.623000000
H    -3.265000000    -3.716000000    -3.794000000
H    -2.684000000    -4.530000000    -4.931000000
O     5.414000000    -2.665000000     4.941000000
H     5.074000000    -1.804000000     5.183000000
H     4.634000000    -3.188000000     4.755000000
O     5.760000000    -4.501000000    -1.291000000
H     5.966000000    -5.429000000    -1.405000000
H     5.490000000    -4.426000000    -0.376000000
O    -4.123000000    -4.318000000    -2.372000000
H    -4.416000000    -3.844000000    -1.594000000
H    -4.930000000    -4.530000000    -2.841000000
O    -1.906000000     3.127000000     3.093000000
H    -1.923000000     2.296000000     2.617000000
H    -1.235000000     3.004000000     3.765000000
O     7.051000000     1.648000000    -0.441000000
H     7.745000000     1.460000000    -1.073000000
H     7.478000000     1.574000000     0.413000000
O    -0.872000000    -5.165000000     1.478000000
H     0.011000000    -5.171000000     1.109000000
H    -0.835000000    -4.511000000     2.176000000
O    -2.859000000     5.352000000    -3.659000000
H    -1.916000000     5.462000000    -3.785000000
H    -2.944000000     5.029000000    -2.762000000
O     1.067000000     0.045000000     4.275000000
H     1.742000000     0.360000000     3.674000000
H     0.640000000     0.840000000     4.594000000
O    -7.488000000     0.405000000     0.204000000
H    -7.731000000    -0.372000000     0.708000000
H    -6.667000000     0.700000000     0.597000000
