158
-3051.46916
C     0.700000000    -1.195000000     0.531000000
H     1.222000000    -2.112000000     0.791000000
C    -0.179000000    -1.171000000    -0.547000000
H    -0.321000000    -2.036000000    -1.190000000
C    -0.848000000    -0.001000000    -0.881000000
H    -1.462000000    -0.012000000    -1.785000000
C    -0.596000000     1.178000000    -0.209000000
H    -1.027000000     2.135000000    -0.494000000
C     0.316000000     1.184000000     0.865000000
H     0.613000000     2.098000000     1.374000000
C     0.882000000    -0.059000000     1.283000000
C     1.874000000    -0.222000000     2.387000000
O     2.614000000     0.738000000     2.632000000
O     2.141000000    -1.279000000     2.913000000
O     1.999000000    -5.587000000     2.741000000
H     1.164000000    -5.341000000     2.343000000
H     2.608000000    -4.904000000     2.461000000
O    -3.331000000    -5.051000000    -2.545000000
H    -3.946000000    -5.784000000    -2.554000000
H    -3.033000000    -4.977000000    -3.452000000
O    -3.729000000    -1.515000000    -2.777000000
H    -4.431000000    -1.315000000    -2.158000000
H    -3.810000000    -2.456000000    -2.934000000
O     3.573000000    -3.487000000     1.978000000
H     3.214000000    -2.613000000     2.133000000
H     4.387000000    -3.504000000     2.482000000
O     3.878000000    -6.982000000     0.109000000
H     4.665000000    -6.756000000    -0.388000000
H     3.316000000    -6.211000000     0.031000000
O    -1.325000000    -2.687000000     5.636000000
H    -0.410000000    -2.673000000     5.356000000
H    -1.319000000    -3.189000000     6.451000000
O     3.730000000    -4.151000000     5.229000000
H     3.507000000    -3.220000000     5.249000000
H     3.539000000    -4.462000000     6.114000000
O    -0.361000000     1.388000000     4.439000000
H    -0.499000000     1.638000000     5.353000000
H     0.464000000     1.810000000     4.198000000
O    -3.698000000     2.726000000     1.093000000
H    -3.564000000     3.350000000     1.807000000
H    -3.249000000     3.119000000     0.345000000
O     3.797000000    -1.065000000     5.120000000
H     2.860000000    -0.921000000     5.253000000
H     3.916000000    -1.006000000     4.172000000
O    -1.099000000     6.207000000    -3.110000000
H    -0.783000000     5.652000000    -3.823000000
H    -0.860000000     5.732000000    -2.314000000
O     5.044000000     1.358000000     3.485000000
H     4.835000000     1.760000000     4.329000000
H     4.201000000     1.057000000     3.148000000
O     2.109000000     2.783000000     4.274000000
H     2.602000000     2.634000000     5.081000000
H     2.367000000     2.062000000     3.699000000
O    -1.321000000    -2.158000000    -5.575000000
H    -1.025000000    -2.193000000    -4.665000000
H    -2.009000000    -1.492000000    -5.576000000
O     1.115000000     0.574000000    -4.674000000
H     0.217000000     0.295000000    -4.495000000
H     1.360000000     1.096000000    -3.910000000
O    -2.467000000     0.188000000    -4.691000000
H    -3.012000000    -0.104000000    -3.960000000
H    -1.847000000     0.802000000    -4.297000000
O     4.086000000     1.794000000     6.020000000
H     3.859000000     0.886000000     6.224000000
H     4.581000000     2.094000000     6.782000000
O     1.902000000    -0.184000000    -7.113000000
H     2.002000000     0.116000000    -6.210000000
H     1.011000000    -0.532000000    -7.153000000
O    -6.164000000    -1.093000000    -4.673000000
H    -6.275000000    -0.785000000    -3.774000000
H    -6.946000000    -1.617000000    -4.845000000
O    -2.503000000    -1.941000000     1.499000000
H    -2.374000000    -1.408000000     2.284000000
H    -1.969000000    -1.513000000     0.830000000
O    -3.062000000     3.632000000    -1.444000000
H    -2.291000000     4.169000000    -1.627000000
H    -2.787000000     2.739000000    -1.650000000
O     3.565000000     5.218000000     4.326000000
H     3.072000000     4.398000000     4.344000000
H     3.450000000     5.547000000     3.434000000
O     1.680000000     3.774000000    -0.598000000
H     1.995000000     3.317000000    -1.378000000
H     2.472000000     3.972000000    -0.099000000
O    -5.415000000     5.033000000    -1.627000000
H    -5.709000000     5.518000000    -0.856000000
H    -4.462000000     5.002000000    -1.542000000
O    -0.597000000     5.198000000    -0.604000000
H    -0.549000000     5.779000000     0.155000000
H     0.159000000     4.618000000    -0.511000000
O    -3.117000000     4.240000000     3.509000000
H    -2.222000000     4.451000000     3.777000000
H    -3.387000000     3.542000000     4.106000000
O    -1.315000000    -0.090000000     6.910000000
H    -0.422000000    -0.026000000     6.571000000
H    -1.706000000    -0.813000000     6.420000000
O    -6.376000000    -0.070000000    -1.893000000
H    -5.871000000     0.470000000    -1.285000000
H    -7.112000000    -0.391000000    -1.373000000
O     1.071000000    -2.919000000     4.972000000
H     1.260000000    -2.179000000     4.395000000
H     1.492000000    -3.666000000     4.547000000
O     4.072000000     0.890000000     0.122000000
H     3.758000000     1.027000000     1.015000000
H     4.886000000     0.398000000     0.227000000
O    -4.258000000     4.082000000    -4.761000000
H    -4.462000000     4.273000000    -3.846000000
H    -4.966000000     3.507000000    -5.049000000
O    -4.159000000    -4.024000000     1.513000000
H    -4.401000000    -4.245000000     2.412000000
H    -3.596000000    -3.254000000     1.600000000
O     4.529000000     3.647000000     0.190000000
H     4.323000000     2.724000000     0.041000000
H     5.484000000     3.672000000     0.251000000
O     2.488000000     1.234000000    -1.731000000
H     1.619000000     0.997000000    -1.406000000
H     3.081000000     1.015000000    -1.012000000
O     0.362000000    -5.796000000    -1.630000000
H     1.171000000    -5.428000000    -1.275000000
H    -0.320000000    -5.183000000    -1.356000000
O    -1.438000000     2.567000000    -3.869000000
H    -0.684000000     3.085000000    -4.150000000
H    -2.169000000     2.909000000    -4.384000000
O     2.357000000    -4.547000000    -0.298000000
H     3.172000000    -4.426000000    -0.785000000
H     2.559000000    -4.239000000     0.586000000
O    -3.460000000     0.955000000    -7.037000000
H    -3.045000000     0.712000000    -6.210000000
H    -4.222000000     1.474000000    -6.779000000
O    -2.290000000     0.727000000     2.900000000
H    -2.383000000     1.379000000     2.206000000
H    -1.500000000     0.990000000     3.372000000
O     0.550000000    -2.672000000    -3.627000000
H     0.708000000    -3.527000000    -4.026000000
H     1.347000000    -2.489000000    -3.128000000
O     6.116000000    -3.265000000     3.820000000
H     5.332000000    -3.574000000     4.273000000
H     6.495000000    -2.616000000     4.412000000
O    -5.605000000     1.218000000     0.338000000
H    -4.945000000     1.750000000     0.782000000
H    -5.979000000     0.674000000     1.031000000
O    -0.175000000    -4.307000000     1.953000000
H    -0.554000000    -3.550000000     2.399000000
H    -0.791000000    -4.504000000     1.248000000
O     7.460000000     1.240000000     2.266000000
H     6.710000000     1.253000000     2.861000000
H     7.334000000     0.452000000     1.738000000
O    -0.468000000     4.938000000     4.307000000
H    -0.358000000     5.061000000     5.250000000
H     0.353000000     4.539000000     4.020000000
O    -1.827000000    -4.409000000    -0.388000000
H    -2.386000000    -4.768000000    -1.077000000
H    -2.354000000    -3.716000000     0.012000000
O     1.554000000    -0.247000000     6.693000000
H     1.621000000     0.465000000     7.330000000
H     1.720000000    -1.040000000     7.202000000
O    -5.386000000     1.481000000    -5.029000000
H    -6.126000000     1.941000000    -4.632000000
H    -5.581000000     0.553000000    -4.895000000
