158
-3015.81086
C    -1.305000000     0.687000000    -0.001000000
H    -2.303000000     1.111000000     0.066000000
C    -1.064000000    -0.652000000     0.411000000
H    -1.843000000    -1.288000000     0.825000000
C     0.254000000    -1.138000000     0.452000000
H     0.548000000    -2.105000000     0.776000000
C     1.292000000    -0.293000000     0.016000000
H     2.280000000    -0.726000000    -0.121000000
C     1.003000000     0.994000000    -0.492000000
H     1.828000000     1.624000000    -0.815000000
C    -0.309000000     1.474000000    -0.510000000
C    -0.696000000     2.761000000    -1.095000000
O     0.150000000     3.509000000    -1.641000000
O    -1.854000000     3.129000000    -0.958000000
O     4.831000000    -2.933000000     4.734000000
H     5.076000000    -3.857000000     4.776000000
H     4.536000000    -2.723000000     5.620000000
O    -0.706000000     8.438000000    -3.728000000
H    -1.577000000     8.782000000    -3.927000000
H    -0.872000000     7.605000000    -3.288000000
O     0.110000000    -0.451000000     4.663000000
H    -0.754000000    -0.739000000     4.958000000
H     0.463000000    -1.203000000     4.187000000
O    -0.281000000    -1.067000000    -3.140000000
H    -0.568000000    -0.326000000    -3.673000000
H     0.673000000    -1.069000000    -3.226000000
O    -2.123000000    -3.047000000    -2.352000000
H    -1.399000000    -2.441000000    -2.197000000
H    -2.872000000    -2.643000000    -1.914000000
O     1.867000000     4.677000000     0.101000000
H     1.276000000     4.325000000    -0.565000000
H     2.338000000     5.381000000    -0.345000000
O     2.270000000     6.859000000    -1.947000000
H     2.160000000     7.790000000    -2.139000000
H     1.379000000     6.511000000    -1.927000000
O     3.421000000     4.116000000     2.331000000
H     3.492000000     3.166000000     2.240000000
H     2.912000000     4.392000000     1.568000000
O    -5.293000000    -3.565000000     1.159000000
H    -4.870000000    -3.088000000     1.873000000
H    -5.852000000    -2.914000000     0.734000000
O     5.327000000     4.102000000    -0.791000000
H     4.683000000     3.427000000    -0.575000000
H     6.090000000     3.886000000    -0.256000000
O    -1.114000000     1.168000000    -4.480000000
H    -1.788000000     1.844000000    -4.552000000
H    -0.289000000     1.639000000    -4.599000000
O    -1.047000000    -6.001000000    -3.150000000
H    -2.001000000    -6.027000000    -3.078000000
H    -0.833000000    -5.068000000    -3.152000000
O     4.804000000     1.059000000    -0.241000000
H     5.207000000     1.202000000    -1.098000000
H     5.052000000     0.165000000    -0.005000000
O    -2.895000000    -4.616000000     0.534000000
H    -3.682000000    -4.076000000     0.608000000
H    -2.358000000    -4.168000000    -0.119000000
O     5.624000000    -1.421000000     0.929000000
H     6.052000000    -1.122000000     1.731000000
H     6.339000000    -1.754000000     0.386000000
O    -4.720000000    -0.794000000     1.834000000
H    -5.203000000    -0.194000000     2.402000000
H    -4.576000000    -0.298000000     1.028000000
O     2.615000000    -1.807000000    -4.138000000
H     3.027000000    -2.503000000    -4.651000000
H     2.682000000    -2.105000000    -3.231000000
O     3.893000000     1.179000000     2.378000000
H     3.548000000     0.293000000     2.485000000
H     4.265000000     1.186000000     1.496000000
O    -5.091000000     3.008000000     3.016000000
H    -5.433000000     2.153000000     3.276000000
H    -4.885000000     2.910000000     2.086000000
O     2.866000000     0.850000000    -4.038000000
H     2.897000000    -0.078000000    -4.273000000
H     3.766000000     1.066000000    -3.795000000
O    -0.675000000    -7.793000000    -1.143000000
H     0.234000000    -8.091000000    -1.146000000
H    -0.738000000    -7.207000000    -1.898000000
O    -2.346000000    -1.428000000     5.071000000
H    -3.153000000    -1.712000000     4.643000000
H    -2.053000000    -2.195000000     5.564000000
O     1.660000000    -4.302000000     2.339000000
H     2.259000000    -3.988000000     1.662000000
H     2.124000000    -5.030000000     2.751000000
O    -4.120000000     2.826000000    -2.241000000
H    -3.370000000     2.953000000    -1.660000000
H    -4.176000000     3.640000000    -2.741000000
O     2.428000000    -6.683000000     0.295000000
H     2.200000000    -7.144000000    -0.513000000
H     2.032000000    -7.209000000     0.990000000
O    -4.600000000    -2.242000000    -1.654000000
H    -4.910000000    -1.856000000    -2.473000000
H    -5.346000000    -2.171000000    -1.058000000
O    -0.076000000     1.797000000     2.952000000
H    -0.384000000     1.039000000     3.449000000
H     0.314000000     1.423000000     2.162000000
O     3.922000000     6.225000000    -4.016000000
H     3.510000000     6.500000000    -3.197000000
H     3.201000000     5.884000000    -4.545000000
O    -2.125000000    -7.108000000     1.108000000
H    -2.561000000    -6.289000000     0.872000000
H    -1.515000000    -7.270000000     0.388000000
O     2.428000000    -1.268000000     3.202000000
H     2.597000000    -1.790000000     3.986000000
H     2.113000000    -1.901000000     2.556000000
O     1.285000000     3.038000000    -4.041000000
H     1.075000000     3.209000000    -3.123000000
H     1.825000000     2.247000000    -4.019000000
O     3.426000000    -3.255000000     0.510000000
H     3.959000000    -4.009000000     0.260000000
H     4.061000000    -2.585000000     0.763000000
O    -0.081000000     5.979000000    -2.446000000
H     0.089000000     5.037000000    -2.422000000
H    -0.999000000     6.063000000    -2.188000000
O    -2.314000000     3.530000000     1.725000000
H    -2.086000000     3.496000000     0.796000000
H    -2.350000000     2.613000000     1.997000000
O    -1.020000000     3.909000000    -5.954000000
H    -1.217000000     4.843000000    -5.884000000
H    -0.294000000     3.772000000    -5.346000000
O     3.351000000    -5.814000000     3.878000000
H     3.327000000    -5.133000000     4.550000000
H     4.254000000    -6.131000000     3.890000000
O     4.722000000    -5.251000000    -0.719000000
H     4.888000000    -5.708000000    -1.544000000
H     3.924000000    -5.655000000    -0.377000000
O    -2.437000000     6.162000000    -1.121000000
H    -2.409000000     5.258000000    -0.808000000
H    -2.858000000     6.649000000    -0.411000000
O     2.314000000    -3.720000000    -2.271000000
H     2.513000000    -3.361000000    -1.406000000
H     2.703000000    -4.594000000    -2.263000000
O    -1.190000000    -4.526000000     3.036000000
H    -0.376000000    -4.973000000     2.807000000
H    -1.678000000    -4.480000000     2.214000000
O    -5.011000000     1.499000000     0.251000000
H    -4.636000000     1.834000000    -0.564000000
H    -5.948000000     1.427000000     0.072000000
O    -1.653000000     5.237000000     3.773000000
H    -0.821000000     4.910000000     4.116000000
H    -1.895000000     4.609000000     3.092000000
O    -4.117000000     5.050000000    -4.165000000
H    -3.822000000     5.904000000    -3.848000000
H    -3.709000000     4.960000000    -5.026000000
O    -4.324000000     1.703000000    -4.778000000
H    -5.262000000     1.509000000    -4.780000000
H    -4.103000000     1.808000000    -3.853000000
O    -0.728000000    -3.866000000     5.627000000
H    -0.882000000    -4.075000000     4.706000000
H    -1.097000000    -4.607000000     6.106000000
O     0.118000000    -3.699000000    -4.615000000
H     0.948000000    -3.600000000    -4.150000000
H    -0.450000000    -3.029000000    -4.235000000
O    -4.504000000    -2.776000000     3.860000000
H    -5.390000000    -2.653000000     4.199000000
H    -4.397000000    -2.079000000     3.212000000
O     1.912000000     5.043000000    -5.651000000
H     2.192000000     4.580000000    -6.441000000
H     1.724000000     4.349000000    -5.020000000
