158
-3035.56042
C    -1.087000000     0.921000000     0.319000000
H    -1.959000000     1.473000000     0.661000000
C    -0.872000000    -0.346000000     0.902000000
H    -1.625000000    -0.697000000     1.604000000
C     0.200000000    -1.138000000     0.499000000
H     0.425000000    -2.069000000     0.855000000
C     1.067000000    -0.631000000    -0.457000000
H     1.918000000    -1.255000000    -0.715000000
C     0.867000000     0.675000000    -1.015000000
H     1.552000000     1.143000000    -1.717000000
C    -0.185000000     1.522000000    -0.587000000
C    -0.397000000     2.897000000    -1.198000000
O     0.153000000     3.122000000    -2.230000000
O    -1.121000000     3.704000000    -0.675000000
O     5.688000000    -1.452000000     3.259000000
H     5.379000000    -0.593000000     3.547000000
H     4.920000000    -2.019000000     3.332000000
O    -1.305000000     7.606000000    -5.085000000
H    -0.858000000     7.026000000    -4.468000000
H    -1.786000000     7.014000000    -5.663000000
O     1.560000000    -0.213000000     2.784000000
H     0.845000000    -0.391000000     2.172000000
H     2.156000000    -0.954000000     2.678000000
O     1.145000000    -2.016000000    -4.519000000
H     1.929000000    -1.479000000    -4.412000000
H     0.552000000    -1.475000000    -5.040000000
O    -2.517000000    -1.398000000    -1.909000000
H    -1.864000000    -0.855000000    -1.466000000
H    -3.340000000    -0.923000000    -1.795000000
O     2.647000000     4.564000000    -3.155000000
H     2.001000000     4.019000000    -2.704000000
H     2.457000000     5.454000000    -2.860000000
O     3.550000000    -3.966000000     4.442000000
H     2.672000000    -4.345000000     4.474000000
H     3.791000000    -3.842000000     5.360000000
O     2.420000000     6.977000000    -1.949000000
H     1.924000000     7.759000000    -2.193000000
H     2.122000000     6.771000000    -1.063000000
O     3.796000000     0.994000000     1.089000000
H     3.450000000     0.107000000     1.189000000
H     4.259000000     0.977000000     0.251000000
O     4.570000000     4.339000000    -0.822000000
H     3.848000000     4.764000000    -1.285000000
H     4.463000000     3.408000000    -1.016000000
O    -1.560000000    -0.589000000    -4.811000000
H    -1.830000000    -1.180000000    -4.109000000
H    -2.104000000    -0.840000000    -5.558000000
O     5.584000000     0.767000000    -0.871000000
H     5.538000000     1.006000000    -1.797000000
H     5.834000000    -0.157000000    -0.875000000
O    -0.880000000    -7.753000000     3.442000000
H    -0.406000000    -8.415000000     3.946000000
H    -0.201000000    -7.146000000     3.146000000
O    -2.452000000    -4.324000000    -1.578000000
H    -2.960000000    -4.668000000    -0.844000000
H    -2.818000000    -3.454000000    -1.737000000
O    -4.165000000    -0.251000000     2.629000000
H    -4.452000000    -1.116000000     2.921000000
H    -4.936000000     0.125000000     2.203000000
O     2.116000000     3.368000000     2.065000000
H     2.670000000     2.610000000     1.878000000
H     1.426000000     3.025000000     2.633000000
O    -5.901000000     3.259000000     0.646000000
H    -5.069000000     3.069000000     0.213000000
H    -6.216000000     2.406000000     0.945000000
O     3.411000000    -0.817000000    -4.298000000
H     3.829000000    -0.087000000    -3.842000000
H     3.958000000    -0.963000000    -5.069000000
O    -0.949000000    -1.263000000     4.447000000
H    -1.234000000    -0.452000000     4.869000000
H    -1.709000000    -1.551000000     3.943000000
O     2.144000000     0.598000000     5.414000000
H     1.602000000     0.645000000     6.202000000
H     1.560000000     0.250000000     4.741000000
O    -2.814000000     7.368000000     2.032000000
H    -2.698000000     7.378000000     1.082000000
H    -2.368000000     8.158000000     2.337000000
O     3.903000000    -2.799000000    -0.024000000
H     4.649000000    -2.311000000    -0.374000000
H     3.838000000    -3.571000000    -0.585000000
O    -3.781000000     2.844000000    -1.023000000
H    -2.898000000     3.168000000    -0.844000000
H    -3.991000000     3.186000000    -1.891000000
O     1.370000000    -7.719000000     0.186000000
H     0.868000000    -6.980000000     0.531000000
H     1.994000000    -7.929000000     0.881000000
O    -4.164000000     5.338000000     3.180000000
H    -3.696000000     6.034000000     2.720000000
H    -3.618000000     4.561000000     3.056000000
O     0.048000000     2.176000000     3.651000000
H     0.211000000     1.255000000     3.447000000
H     0.070000000     2.217000000     4.607000000
O     2.670000000     3.508000000    -5.754000000
H     2.252000000     2.648000000    -5.704000000
H     2.591000000     3.864000000    -4.869000000
O    -0.016000000    -5.251000000    -0.670000000
H     0.332000000    -5.856000000    -1.324000000
H    -0.828000000    -4.922000000    -1.056000000
O     3.114000000    -2.201000000     2.430000000
H     3.176000000    -3.047000000     2.874000000
H     3.459000000    -2.365000000     1.552000000
O    -0.217000000     1.878000000    -4.698000000
H    -0.088000000     2.294000000    -3.845000000
H    -0.643000000     1.045000000    -4.495000000
O     5.263000000     1.042000000    -4.041000000
H     6.102000000     0.877000000    -4.472000000
H     5.082000000     1.965000000    -4.215000000
O     3.548000000    -3.395000000    -3.421000000
H     2.732000000    -3.486000000    -3.912000000
H     3.657000000    -2.451000000    -3.309000000
O    -0.539000000     5.568000000    -3.330000000
H    -0.190000000     4.732000000    -3.021000000
H    -0.368000000     6.178000000    -2.612000000
O    -1.734000000     3.967000000     2.004000000
H    -1.355000000     3.977000000     1.126000000
H    -1.146000000     3.408000000     2.513000000
O    -2.243000000     3.548000000    -5.384000000
H    -1.777000000     4.100000000    -6.012000000
H    -1.640000000     2.828000000    -5.203000000
O     0.511000000    -3.639000000     4.140000000
H    -0.148000000    -4.200000000     4.550000000
H     0.044000000    -2.827000000     3.943000000
O     3.938000000    -5.265000000    -1.412000000
H     3.796000000    -4.887000000    -2.280000000
H     3.118000000    -5.717000000    -1.210000000
O    -1.032000000     6.413000000    -0.642000000
H    -0.990000000     5.459000000    -0.570000000
H    -1.943000000     6.597000000    -0.871000000
O    -3.703000000     7.540000000    -0.460000000
H    -3.664000000     8.457000000    -0.188000000
H    -4.638000000     7.351000000    -0.533000000
O     0.689000000    -5.723000000     2.037000000
H     0.599000000    -4.982000000     2.638000000
H     0.301000000    -5.415000000     1.218000000
O    -4.659000000     0.375000000    -2.345000000
H    -4.213000000     1.030000000    -1.807000000
H    -5.382000000     0.852000000    -2.752000000
O     1.222000000     5.998000000     0.429000000
H     1.271000000     5.126000000     0.821000000
H     0.327000000     6.059000000     0.093000000
O     1.600000000     0.988000000    -6.619000000
H     0.817000000     1.420000000    -6.278000000
H     1.294000000     0.125000000    -6.900000000
O    -0.941000000    -2.077000000     7.101000000
H    -0.953000000    -1.967000000     6.150000000
H    -0.048000000    -2.357000000     7.299000000
O    -3.489000000     4.765000000    -3.386000000
H    -2.737000000     5.121000000    -2.912000000
H    -3.110000000     4.135000000    -3.998000000
O    -3.454000000    -6.172000000     2.175000000
H    -4.213000000    -5.698000000     2.516000000
H    -3.005000000    -5.535000000     1.619000000
O    -1.933000000    -5.165000000     4.528000000
H    -2.061000000    -6.053000000     4.195000000
H    -2.331000000    -5.176000000     5.399000000
O    -2.319000000     0.906000000     5.510000000
H    -2.348000000     1.560000000     6.209000000
H    -2.832000000     1.292000000     4.800000000
