158
-3039.90956
C     1.236000000     0.265000000    -0.763000000
H     2.111000000     0.441000000    -1.384000000
C     0.040000000     0.928000000    -0.918000000
H     0.017000000     1.624000000    -1.753000000
C    -1.073000000     0.634000000    -0.058000000
H    -2.039000000     1.205000000    -0.345000000
C    -0.979000000    -0.316000000     0.933000000
H    -1.844000000    -0.549000000     1.550000000
C     0.297000000    -0.846000000     1.137000000
H     0.305000000    -1.656000000     1.862000000
C     1.409000000    -0.627000000     0.310000000
C     2.724000000    -1.363000000     0.519000000
O     2.937000000    -1.945000000     1.592000000
O     3.557000000    -1.450000000    -0.359000000
O     0.669000000     2.214000000    -5.839000000
H     0.877000000     1.390000000    -5.398000000
H     0.764000000     2.017000000    -6.771000000
O     2.723000000    -3.771000000     3.503000000
H     1.842000000    -3.588000000     3.832000000
H     2.822000000    -3.189000000     2.749000000
O     2.993000000     2.786000000    -1.794000000
H     3.173000000     2.047000000    -2.375000000
H     2.329000000     3.298000000    -2.257000000
O     3.037000000    -6.667000000     0.639000000
H     2.252000000    -6.123000000     0.582000000
H     3.440000000    -6.419000000     1.471000000
O    -4.026000000     1.831000000    -2.773000000
H    -3.491000000     1.481000000    -3.485000000
H    -4.872000000     1.395000000    -2.871000000
O     5.904000000    -2.166000000     1.695000000
H     5.024000000    -1.795000000     1.774000000
H     5.855000000    -2.739000000     0.930000000
O     5.100000000     1.459000000     2.322000000
H     4.638000000     2.266000000     2.546000000
H     4.694000000     0.790000000     2.874000000
O     5.484000000     0.315000000    -0.121000000
H     5.140000000     0.822000000     0.614000000
H     4.809000000    -0.340000000    -0.297000000
O     3.048000000    -0.467000000     3.835000000
H     2.128000000    -0.372000000     4.079000000
H     3.050000000    -1.160000000     3.174000000
O    -1.343000000    -0.758000000    -3.524000000
H    -0.505000000    -0.554000000    -3.940000000
H    -1.121000000    -1.376000000    -2.828000000
O    -3.378000000    -2.493000000     2.715000000
H    -3.475000000    -2.129000000     1.835000000
H    -3.085000000    -3.393000000     2.571000000
O    -2.339000000    -4.442000000    -1.133000000
H    -1.780000000    -3.668000000    -1.199000000
H    -2.112000000    -4.968000000    -1.899000000
O     0.064000000     2.411000000     3.127000000
H    -0.538000000     2.987000000     2.656000000
H     0.649000000     2.070000000     2.451000000
O    -2.622000000    -0.358000000     4.484000000
H    -3.213000000    -1.049000000     4.186000000
H    -2.183000000    -0.057000000     3.688000000
O    -0.754000000    -2.415000000    -1.111000000
H     0.001000000    -2.822000000    -1.535000000
H    -0.412000000    -1.598000000    -0.747000000
O    -3.626000000     2.132000000     4.959000000
H    -3.483000000     1.195000000     5.092000000
H    -2.770000000     2.470000000     4.697000000
O    -4.028000000     0.587000000    -5.716000000
H    -3.632000000     1.413000000    -5.995000000
H    -3.578000000    -0.081000000    -6.231000000
O    -0.815000000     5.023000000     0.119000000
H    -1.407000000     4.464000000     0.623000000
H    -1.367000000     5.744000000    -0.184000000
O     1.178000000    -0.338000000    -4.435000000
H     1.420000000    -0.623000000    -5.316000000
H     2.001000000    -0.044000000    -4.044000000
O    -4.805000000    -3.425000000     5.001000000
H    -4.414000000    -3.137000000     4.176000000
H    -5.609000000    -3.875000000     4.740000000
O    -1.653000000     1.997000000    -4.397000000
H    -1.041000000     2.094000000    -5.127000000
H    -1.523000000     1.099000000    -4.093000000
O     0.704000000     0.070000000     5.085000000
H    -0.002000000    -0.576000000     5.052000000
H     0.283000000     0.897000000     4.848000000
O     0.093000000    -3.095000000     4.236000000
H    -0.490000000    -2.589000000     4.802000000
H    -0.419000000    -3.866000000     3.993000000
O     1.504000000     3.423000000     0.690000000
H     0.747000000     3.871000000     0.312000000
H     1.760000000     2.783000000     0.026000000
O    -6.465000000     1.690000000     3.412000000
H    -5.730000000     1.449000000     2.848000000
H    -6.797000000     0.855000000     3.742000000
O     0.779000000     3.844000000    -3.353000000
H     0.893000000     3.540000000    -4.253000000
H    -0.095000000     3.542000000    -3.107000000
O     7.845000000    -2.461000000     3.477000000
H     7.817000000    -3.388000000     3.713000000
H     7.108000000    -2.344000000     2.877000000
O     7.736000000    -3.669000000    -1.857000000
H     6.841000000    -3.708000000    -1.519000000
H     8.238000000    -3.252000000    -1.157000000
O     5.851000000     1.205000000    -2.688000000
H     6.529000000     0.610000000    -3.008000000
H     5.737000000     0.966000000    -1.768000000
O    -3.043000000     4.962000000    -4.691000000
H    -3.329000000     5.084000000    -5.596000000
H    -3.379000000     4.099000000    -4.448000000
O     3.406000000     1.111000000    -3.906000000
H     4.264000000     1.032000000    -3.491000000
H     3.595000000     1.134000000    -4.844000000
O     4.326000000    -5.939000000     2.968000000
H     5.184000000    -5.768000000     3.358000000
H     3.838000000    -5.126000000     3.098000000
O     1.646000000    -3.419000000    -2.052000000
H     2.133000000    -3.161000000    -2.835000000
H     1.892000000    -4.333000000    -1.908000000
O     8.344000000    -0.001000000     1.389000000
H     8.355000000     0.492000000     2.210000000
H     7.486000000     0.186000000     1.009000000
O    -6.842000000     0.775000000    -2.254000000
H    -7.707000000     0.368000000    -2.295000000
H    -6.700000000     0.943000000    -1.322000000
O    -2.576000000     2.967000000     1.716000000
H    -3.052000000     2.170000000     1.480000000
H    -3.257000000     3.573000000     2.010000000
O     2.676000000     5.848000000    -2.649000000
H     3.101000000     5.241000000    -2.044000000
H     2.009000000     5.321000000    -3.089000000
O    -4.873000000     0.271000000     1.538000000
H    -4.401000000    -0.474000000     1.166000000
H    -4.913000000     0.909000000     0.825000000
O     7.498000000    -0.765000000    -2.262000000
H     7.249000000    -0.772000000    -1.338000000
H     8.406000000    -1.067000000    -2.268000000
O    -5.122000000     6.251000000     0.904000000
H    -5.361000000     5.549000000     0.298000000
H    -4.895000000     5.799000000     1.716000000
O     4.440000000    -2.328000000    -3.015000000
H     4.232000000    -1.890000000    -2.190000000
H     5.274000000    -2.768000000    -2.850000000
O     4.623000000     4.554000000    -0.620000000
H     4.204000000     4.779000000     0.211000000
H     4.191000000     3.746000000    -0.895000000
O     5.326000000     0.215000000     5.184000000
H     5.764000000    -0.383000000     5.790000000
H     4.586000000    -0.288000000     4.845000000
O     1.500000000    -4.381000000     0.606000000
H     0.863000000    -3.950000000     0.036000000
H     1.907000000    -3.666000000     1.095000000
O    -4.740000000     2.497000000    -0.198000000
H    -5.283000000     3.258000000    -0.403000000
H    -4.367000000     2.235000000    -1.039000000
O    -3.778000000    -1.943000000     0.186000000
H    -4.391000000    -2.300000000    -0.457000000
H    -2.939000000    -1.912000000    -0.274000000
O     5.163000000    -3.740000000    -0.589000000
H     4.903000000    -4.349000000     0.102000000
H     4.454000000    -3.098000000    -0.622000000
O    -3.572000000    -2.197000000    -4.362000000
H    -2.997000000    -1.556000000    -3.943000000
H    -4.445000000    -1.809000000    -4.304000000
