158
-3053.90197
C     1.248000000    -0.540000000     0.412000000
H     2.293000000    -0.791000000     0.572000000
C     1.037000000     0.627000000    -0.305000000
H     1.922000000     1.205000000    -0.560000000
C    -0.247000000     1.014000000    -0.686000000
H    -0.327000000     1.952000000    -1.246000000
C    -1.333000000     0.214000000    -0.360000000
H    -2.332000000     0.427000000    -0.731000000
C    -1.048000000    -0.935000000     0.425000000
H    -1.823000000    -1.654000000     0.679000000
C     0.197000000    -1.354000000     0.801000000
C     0.422000000    -2.575000000     1.653000000
O    -0.530000000    -3.251000000     2.048000000
O     1.507000000    -2.785000000     2.097000000
O    -4.700000000    -2.927000000    -2.156000000
H    -5.383000000    -3.594000000    -2.221000000
H    -3.939000000    -3.396000000    -1.813000000
O     3.143000000     5.019000000    -3.179000000
H     3.703000000     5.654000000    -2.733000000
H     3.329000000     5.147000000    -4.109000000
O    -1.575000000    -7.642000000     0.836000000
H    -2.080000000    -7.477000000     1.632000000
H    -0.840000000    -7.032000000     0.888000000
O    -0.585000000     5.167000000    -4.618000000
H    -0.545000000     5.924000000    -5.203000000
H     0.096000000     5.333000000    -3.966000000
O     3.162000000    -4.249000000     4.467000000
H     2.463000000    -4.298000000     5.120000000
H     2.743000000    -3.865000000     3.697000000
O     2.918000000     4.070000000    -0.532000000
H     3.004000000     4.490000000    -1.387000000
H     1.983000000     4.120000000    -0.333000000
O     0.318000000    -5.603000000     1.119000000
H     0.248000000    -4.717000000     1.475000000
H     1.096000000    -5.969000000     1.540000000
O     0.975000000    -4.051000000     6.127000000
H     0.949000000    -4.703000000     6.828000000
H     0.328000000    -3.395000000     6.386000000
O     2.788000000    -0.996000000     3.576000000
H     2.646000000    -0.184000000     3.090000000
H     2.259000000    -1.647000000     3.113000000
O     2.104000000     1.853000000     2.358000000
H     1.269000000     2.112000000     2.747000000
H     1.863000000     1.430000000     1.534000000
O     4.235000000     3.605000000     1.691000000
H     3.722000000     2.889000000     2.066000000
H     3.862000000     3.735000000     0.819000000
O    -3.339000000    -3.468000000     5.479000000
H    -3.588000000    -3.858000000     6.317000000
H    -3.948000000    -2.738000000     5.364000000
O     2.599000000    -3.787000000    -2.394000000
H     3.178000000    -3.530000000    -1.676000000
H     3.190000000    -4.106000000    -3.076000000
O    -0.669000000    -1.712000000     4.671000000
H    -1.493000000    -1.614000000     4.193000000
H    -0.253000000    -2.478000000     4.276000000
O    -0.159000000     2.373000000     3.648000000
H    -1.044000000     2.064000000     3.452000000
H    -0.200000000     2.652000000     4.562000000
O    -2.292000000    -4.714000000     3.179000000
H    -2.461000000    -4.389000000     4.063000000
H    -1.565000000    -4.178000000     2.862000000
O    -3.103000000    -0.565000000     3.293000000
H    -2.800000000     0.247000000     2.886000000
H    -3.669000000    -0.967000000     2.634000000
O    -2.563000000     5.234000000     2.379000000
H    -2.771000000     4.824000000     1.539000000
H    -1.796000000     5.777000000     2.197000000
O    -4.940000000    -1.379000000     1.414000000
H    -5.305000000    -0.989000000     0.620000000
H    -4.560000000    -2.207000000     1.121000000
O     4.376000000    -2.442000000    -0.188000000
H     4.113000000    -1.824000000    -0.870000000
H     4.980000000    -1.947000000     0.365000000
O    -5.871000000    -0.565000000    -0.955000000
H    -6.549000000    -0.276000000    -1.566000000
H    -5.363000000    -1.208000000    -1.448000000
O     0.886000000     1.127000000    -6.056000000
H     0.486000000     1.407000000    -5.232000000
H     0.331000000     0.409000000    -6.360000000
O    -1.684000000     2.733000000    -4.601000000
H    -1.339000000     3.614000000    -4.453000000
H    -2.177000000     2.803000000    -5.418000000
O    -3.783000000     1.179000000    -3.227000000
H    -3.177000000     1.514000000    -3.888000000
H    -4.605000000     1.048000000    -3.699000000
O    -2.838000000     4.738000000    -0.276000000
H    -3.438000000     4.113000000    -0.682000000
H    -2.828000000     5.485000000    -0.874000000
O    -3.128000000     2.174000000     2.712000000
H    -2.880000000     3.022000000     2.343000000
H    -3.716000000     1.792000000     2.060000000
O     0.333000000     6.445000000    -2.155000000
H     0.431000000     5.780000000    -1.473000000
H    -0.187000000     7.135000000    -1.743000000
O     1.294000000     0.137000000     5.501000000
H     2.080000000    -0.117000000     5.017000000
H     0.575000000    -0.276000000     5.023000000
O     0.935000000    -7.061000000     4.590000000
H     0.550000000    -6.186000000     4.653000000
H     1.537000000    -7.005000000     3.848000000
O    -4.650000000     3.320000000    -1.396000000
H    -5.597000000     3.251000000    -1.514000000
H    -4.288000000     2.638000000    -1.962000000
O     5.820000000    -5.180000000     3.036000000
H     6.570000000    -4.944000000     2.491000000
H     5.129000000    -4.573000000     2.767000000
O     1.553000000     2.605000000    -3.563000000
H     2.044000000     3.360000000    -3.887000000
H     0.905000000     2.979000000    -2.966000000
O     5.439000000    -1.777000000     3.832000000
H     4.567000000    -1.537000000     3.520000000
H     5.302000000    -2.584000000     4.329000000
O    -2.916000000     5.996000000    -2.957000000
H    -3.263000000     6.815000000    -3.311000000
H    -2.034000000     5.932000000    -3.322000000
O     1.524000000    -6.089000000    -1.599000000
H     1.474000000    -5.931000000    -0.656000000
H     1.812000000    -5.253000000    -1.967000000
O    -0.089000000    -3.236000000    -2.752000000
H     0.002000000    -2.285000000    -2.711000000
H     0.805000000    -3.567000000    -2.658000000
O     0.524000000    -0.608000000    -3.544000000
H     0.492000000    -0.082000000    -2.745000000
H     1.456000000    -0.671000000    -3.753000000
O    -2.585000000    -7.389000000     3.329000000
H    -2.422000000    -6.448000000     3.263000000
H    -3.124000000    -7.485000000     4.114000000
O     3.534000000    -0.554000000    -2.335000000
H     3.419000000    -0.080000000    -3.158000000
H     3.847000000     0.108000000    -1.719000000
O    -2.242000000    -4.727000000    -1.015000000
H    -1.763000000    -4.245000000    -1.689000000
H    -1.606000000    -5.354000000    -0.672000000
O     0.090000000     4.841000000     0.123000000
H     0.064000000     5.357000000     0.929000000
H    -0.771000000     4.425000000     0.078000000
O    -3.945000000    -3.866000000     1.081000000
H    -3.504000000    -4.139000000     0.277000000
H    -3.307000000    -4.039000000     1.774000000
O    -4.919000000     1.519000000     0.886000000
H    -5.063000000     1.489000000    -0.060000000
H    -5.236000000     0.673000000     1.203000000
O     6.292000000    -1.516000000     1.310000000
H     6.977000000    -0.848000000     1.337000000
H     6.180000000    -1.781000000     2.223000000
O     3.445000000     0.223000000    -5.308000000
H     3.017000000    -0.322000000    -5.968000000
H     2.917000000     1.021000000    -5.278000000
O     2.606000000    -6.707000000     2.096000000
H     3.122000000    -5.930000000     1.882000000
H     3.133000000    -7.439000000     1.776000000
O     4.495000000     1.565000000    -0.811000000
H     5.297000000     2.014000000    -1.078000000
H     3.805000000     2.218000000    -0.927000000
O     3.573000000    -4.262000000     1.477000000
H     4.092000000    -3.816000000     0.808000000
H     2.932000000    -3.608000000     1.757000000
