158
-3020.17407
C     1.381000000    -0.277000000     0.577000000
H     2.383000000    -0.393000000     0.981000000
C     1.006000000     0.721000000    -0.381000000
H     1.746000000     1.389000000    -0.816000000
C    -0.287000000     0.847000000    -0.864000000
H    -0.584000000     1.620000000    -1.538000000
C    -1.264000000     0.044000000    -0.320000000
H    -2.249000000     0.227000000    -0.743000000
C    -0.960000000    -0.855000000     0.696000000
H    -1.658000000    -1.546000000     1.162000000
C     0.355000000    -1.032000000     1.168000000
C     0.708000000    -2.148000000     2.135000000
O    -0.144000000    -2.855000000     2.588000000
O     1.835000000    -2.133000000     2.628000000
O     1.950000000    -2.739000000     7.775000000
H     2.472000000    -2.949000000     7.000000000
H     2.597000000    -2.532000000     8.450000000
O     1.493000000    -3.550000000     4.833000000
H     1.512000000    -3.285000000     3.913000000
H     0.570000000    -3.488000000     5.081000000
O     1.427000000     3.948000000    -0.435000000
H     2.315000000     3.790000000    -0.756000000
H     0.859000000     3.599000000    -1.122000000
O    -0.999000000    -5.112000000     3.439000000
H    -0.679000000    -4.232000000     3.241000000
H    -0.341000000    -5.697000000     3.062000000
O     3.138000000    -0.216000000     4.086000000
H     2.376000000     0.246000000     4.437000000
H     2.767000000    -0.925000000     3.561000000
O    -3.155000000     3.034000000     2.090000000
H    -2.979000000     2.355000000     2.741000000
H    -2.333000000     3.124000000     1.608000000
O     3.900000000     2.942000000     2.138000000
H     4.079000000     2.926000000     1.198000000
H     4.756000000     2.810000000     2.547000000
O     5.574000000    -3.019000000     0.556000000
H     5.295000000    -2.118000000     0.718000000
H     4.981000000    -3.552000000     1.086000000
O     2.670000000    -4.185000000    -0.089000000
H     1.981000000    -3.526000000    -0.178000000
H     3.455000000    -3.758000000    -0.431000000
O    -1.374000000    -1.812000000     4.539000000
H    -2.103000000    -2.396000000     4.746000000
H    -1.026000000    -2.146000000     3.712000000
O    -2.420000000     0.994000000     3.885000000
H    -2.109000000     1.251000000     4.753000000
H    -2.702000000     0.085000000     3.991000000
O     4.938000000     0.189000000    -0.773000000
H     4.933000000     0.337000000     0.173000000
H     4.857000000     1.065000000    -1.153000000
O    -3.547000000    -3.584000000     5.672000000
H    -4.301000000    -4.138000000     5.470000000
H    -3.592000000    -3.454000000     6.620000000
O     3.738000000    -2.021000000    -1.621000000
H     4.195000000    -1.255000000    -1.274000000
H     4.349000000    -2.399000000    -2.253000000
O    -6.057000000    -0.683000000     0.478000000
H    -6.752000000    -1.236000000     0.835000000
H    -5.307000000    -1.271000000     0.387000000
O    -5.250000000     2.039000000    -4.772000000
H    -5.292000000     1.084000000    -4.725000000
H    -4.990000000     2.224000000    -5.674000000
O    -3.007000000    -6.772000000     4.303000000
H    -2.308000000    -6.259000000     3.897000000
H    -3.712000000    -6.769000000     3.655000000
O    -2.437000000     1.808000000    -4.583000000
H    -3.314000000     1.532000000    -4.851000000
H    -2.085000000     2.262000000    -5.349000000
O    -2.846000000     3.617000000    -2.386000000
H    -2.259000000     4.365000000    -2.274000000
H    -2.337000000     2.988000000    -2.899000000
O    -1.826000000     6.360000000    -2.344000000
H    -1.188000000     6.953000000    -1.947000000
H    -1.820000000     6.590000000    -3.273000000
O     1.829000000     5.517000000    -4.406000000
H     1.946000000     6.462000000    -4.499000000
H     2.719000000     5.165000000    -4.401000000
O     2.324000000     5.159000000     1.898000000
H     1.765000000     4.956000000     1.148000000
H     2.809000000     4.349000000     2.060000000
O    -0.703000000    -1.587000000     7.280000000
H     0.146000000    -2.018000000     7.376000000
H    -0.999000000    -1.835000000     6.404000000
O     0.768000000    -0.222000000    -6.784000000
H     1.190000000     0.431000000    -6.226000000
H     0.279000000    -0.777000000    -6.176000000
O    -4.730000000     3.342000000    -0.319000000
H    -4.156000000     3.461000000    -1.075000000
H    -4.198000000     3.608000000     0.431000000
O    -0.971000000    -1.735000000    -5.095000000
H    -0.543000000    -2.554000000    -5.342000000
H    -1.844000000    -1.999000000    -4.802000000
O     0.113000000     3.662000000    -3.219000000
H     0.492000000     2.923000000    -3.695000000
H     0.530000000     4.433000000    -3.603000000
O     5.876000000    -3.809000000     4.033000000
H     5.914000000    -4.406000000     4.781000000
H     4.999000000    -3.937000000     3.670000000
O    -4.168000000     6.834000000    -0.784000000
H    -4.090000000     7.687000000    -1.211000000
H    -3.451000000     6.317000000    -1.149000000
O    -0.683000000    -4.469000000     0.220000000
H    -0.007000000    -5.143000000     0.297000000
H    -0.469000000    -3.835000000     0.904000000
O     5.620000000    -1.161000000     4.500000000
H     4.664000000    -1.117000000     4.524000000
H     5.819000000    -2.093000000     4.584000000
O    -0.827000000    -3.929000000    -2.364000000
H    -0.165000000    -3.243000000    -2.280000000
H    -0.931000000    -4.272000000    -1.477000000
O     1.224000000    -1.780000000    -2.560000000
H     2.083000000    -1.816000000    -2.138000000
H     0.873000000    -0.924000000    -2.315000000
O     2.823000000     1.623000000    -3.582000000
H     2.041000000     1.071000000    -3.563000000
H     3.234000000     1.485000000    -2.728000000
O     3.820000000    -5.014000000     6.020000000
H     4.156000000    -5.830000000     5.649000000
H     3.314000000    -4.619000000     5.310000000
O    -3.416000000    -5.617000000    -0.018000000
H    -2.518000000    -5.318000000    -0.161000000
H    -3.324000000    -6.530000000     0.255000000
O     4.635000000     1.992000000     5.285000000
H     4.682000000     1.684000000     6.190000000
H     4.170000000     1.297000000     4.820000000
O    -3.184000000    -2.902000000    -3.746000000
H    -2.578000000    -3.216000000    -3.075000000
H    -4.052000000    -3.014000000    -3.357000000
O    -3.952000000    -3.086000000     2.063000000
H    -3.725000000    -3.818000000     1.490000000
H    -3.324000000    -3.143000000     2.784000000
O    -5.517000000    -0.795000000     3.915000000
H    -5.069000000    -1.447000000     3.376000000
H    -6.408000000    -0.767000000     3.566000000
O     5.050000000     0.088000000     1.887000000
H     4.345000000     0.274000000     2.507000000
H     5.687000000    -0.417000000     2.393000000
O    -4.896000000    -0.789000000    -4.571000000
H    -5.269000000    -1.659000000    -4.711000000
H    -4.006000000    -0.957000000    -4.261000000
O     0.301000000     0.769000000    -4.217000000
H     0.173000000    -0.174000000    -4.315000000
H    -0.584000000     1.134000000    -4.237000000
O     3.378000000     1.195000000    -6.510000000
H     3.395000000     1.329000000    -5.562000000
H     3.293000000     2.075000000    -6.875000000
O     0.713000000    -6.726000000     2.096000000
H     1.464000000    -6.780000000     2.686000000
H     1.052000000    -7.017000000     1.249000000
O    -0.425000000     3.007000000     1.777000000
H    -0.151000000     2.091000000     1.730000000
H    -0.274000000     3.347000000     0.895000000
O     4.823000000     2.675000000    -1.546000000
H     4.678000000     3.538000000    -1.159000000
H     5.741000000     2.684000000    -1.816000000
O     3.653000000    -4.008000000     2.666000000
H     3.347000000    -4.819000000     2.259000000
H     2.957000000    -3.375000000     2.490000000
