158
-3023.88853
C     1.146000000    -0.933000000     0.541000000
H     2.009000000    -1.528000000     0.830000000
C     1.244000000     0.201000000    -0.308000000
H     2.205000000     0.458000000    -0.745000000
C     0.127000000     0.966000000    -0.727000000
H     0.243000000     1.831000000    -1.474000000
C    -1.145000000     0.594000000    -0.306000000
H    -2.074000000     1.079000000    -0.593000000
C    -1.255000000    -0.466000000     0.568000000
H    -2.290000000    -0.645000000     0.850000000
C    -0.139000000    -1.245000000     0.988000000
C    -0.353000000    -2.393000000     1.820000000
O    -1.452000000    -2.757000000     2.135000000
O     0.589000000    -3.103000000     2.177000000
O    -4.535000000    -6.425000000     0.048000000
H    -3.943000000    -6.864000000    -0.562000000
H    -3.997000000    -5.746000000     0.457000000
O     1.952000000     7.200000000     1.892000000
H     1.486000000     6.763000000     1.179000000
H     2.878000000     7.066000000     1.691000000
O    -1.276000000    -3.992000000     4.500000000
H    -1.173000000    -3.498000000     3.687000000
H    -2.052000000    -4.533000000     4.355000000
O     2.237000000     2.991000000     1.266000000
H     2.458000000     3.570000000     0.537000000
H     2.325000000     2.108000000     0.906000000
O     3.224000000    -3.793000000     1.935000000
H     2.283000000    -3.622000000     1.971000000
H     3.483000000    -3.520000000     1.055000000
O     1.874000000    -1.752000000     3.964000000
H     1.074000000    -1.350000000     4.303000000
H     1.567000000    -2.396000000     3.326000000
O    -2.834000000     2.373000000     4.076000000
H    -2.662000000     2.600000000     3.162000000
H    -2.637000000     1.438000000     4.131000000
O     5.541000000     3.664000000    -2.431000000
H     5.043000000     3.423000000    -3.212000000
H     5.174000000     4.506000000    -2.162000000
O     5.323000000    -0.536000000     1.930000000
H     5.202000000    -0.994000000     2.762000000
H     4.624000000     0.117000000     1.913000000
O    -2.940000000    -0.431000000     3.308000000
H    -3.874000000    -0.315000000     3.135000000
H    -2.664000000    -1.109000000     2.691000000
O    -6.382000000    -2.836000000     4.221000000
H    -5.636000000    -3.046000000     3.659000000
H    -7.028000000    -2.451000000     3.629000000
O     6.992000000     0.245000000    -0.179000000
H     7.845000000    -0.090000000     0.100000000
H     6.449000000     0.201000000     0.608000000
O     6.365000000    -2.707000000     0.821000000
H     6.373000000    -2.544000000    -0.122000000
H     6.127000000    -1.864000000     1.207000000
O     2.230000000     4.833000000    -5.400000000
H     2.913000000     4.187000000    -5.219000000
H     2.127000000     5.310000000    -4.576000000
O    -4.261000000     0.931000000    -4.758000000
H    -4.337000000     0.304000000    -5.478000000
H    -4.013000000     1.753000000    -5.182000000
O     4.073000000     0.426000000    -2.831000000
H     4.178000000     0.806000000    -1.958000000
H     4.721000000     0.881000000    -3.369000000
O     3.561000000    -3.239000000    -0.713000000
H     4.041000000    -2.519000000    -1.121000000
H     2.777000000    -3.341000000    -1.253000000
O     2.749000000    -1.792000000    -3.634000000
H     3.235000000    -1.040000000    -3.297000000
H     3.101000000    -1.930000000    -4.513000000
O    -5.162000000     2.543000000     0.368000000
H    -4.906000000     2.138000000    -0.461000000
H    -4.394000000     2.443000000     0.930000000
O    -1.787000000     0.958000000    -6.300000000
H    -1.204000000     1.713000000    -6.377000000
H    -1.211000000     0.234000000    -6.055000000
O    -1.624000000     2.363000000    -3.129000000
H    -2.051000000     1.901000000    -3.851000000
H    -2.333000000     2.837000000    -2.695000000
O    -4.156000000    -3.245000000     2.817000000
H    -3.241000000    -3.330000000     2.548000000
H    -4.656000000    -3.390000000     2.013000000
O    -0.055000000     4.647000000    -3.099000000
H    -0.653000000     5.279000000    -3.497000000
H    -0.564000000     3.838000000    -3.041000000
O    -3.527000000     4.302000000    -2.231000000
H    -3.323000000     4.374000000    -1.299000000
H    -3.058000000     5.032000000    -2.636000000
O    -1.511000000     5.391000000     0.179000000
H    -1.858000000     6.055000000     0.776000000
H    -0.635000000     5.704000000    -0.044000000
O     4.241000000     2.904000000    -4.841000000
H     4.532000000     1.992000000    -4.875000000
H     4.864000000     3.374000000    -5.395000000
O    -2.373000000    -1.549000000     5.749000000
H    -2.192000000    -2.478000000     5.608000000
H    -2.526000000    -1.198000000     4.871000000
O    -2.866000000     4.192000000    -6.202000000
H    -2.888000000     4.572000000    -7.080000000
H    -1.935000000     4.064000000    -6.019000000
O     1.374000000    -6.601000000     2.643000000
H     0.518000000    -6.563000000     2.216000000
H     1.995000000    -6.356000000     1.956000000
O    -2.507000000     2.771000000     1.307000000
H    -1.649000000     2.364000000     1.187000000
H    -2.462000000     3.578000000     0.794000000
O    -0.561000000    -1.244000000    -5.353000000
H    -0.459000000    -2.157000000    -5.621000000
H    -0.637000000    -1.281000000    -4.400000000
O     5.662000000    -4.782000000     2.387000000
H     5.969000000    -4.112000000     1.776000000
H     4.707000000    -4.729000000     2.340000000
O     1.570000000     5.542000000    -0.832000000
H     1.093000000     5.257000000    -1.612000000
H     2.445000000     5.758000000    -1.153000000
O     4.378000000     1.946000000    -0.664000000
H     4.691000000     2.493000000    -1.384000000
H     5.101000000     1.940000000    -0.036000000
O    -0.596000000    -6.229000000    -0.001000000
H     0.054000000    -5.527000000    -0.043000000
H    -0.696000000    -6.517000000    -0.909000000
O    -2.459000000    -4.270000000     0.249000000
H    -1.933000000    -3.758000000     0.863000000
H    -2.014000000    -5.115000000     0.198000000
O    -0.468000000    -1.518000000    -2.447000000
H     0.096000000    -2.258000000    -2.220000000
H    -0.146000000    -0.797000000    -1.905000000
O    -0.011000000     3.113000000    -5.989000000
H     0.590000000     2.465000000    -5.620000000
H     0.454000000     3.946000000    -5.904000000
O     1.383000000    -4.797000000     4.576000000
H     1.438000000    -5.451000000     3.878000000
H     0.514000000    -4.411000000     4.474000000
O    -3.198000000    -1.721000000    -1.567000000
H    -3.174000000    -2.430000000    -0.926000000
H    -2.323000000    -1.718000000    -1.954000000
O    -4.764000000     0.701000000    -1.861000000
H    -4.418000000     0.860000000    -2.739000000
H    -4.465000000    -0.182000000    -1.642000000
O     1.030000000     1.058000000    -4.106000000
H     1.150000000     0.120000000    -3.961000000
H     0.445000000     1.337000000    -3.402000000
O     1.295000000     0.424000000    -6.710000000
H     1.126000000    -0.517000000    -6.750000000
H     1.309000000     0.625000000    -5.774000000
O     1.465000000    -4.102000000    -2.213000000
H     1.768000000    -5.009000000    -2.204000000
H     1.671000000    -3.789000000    -3.094000000
O     0.164000000     3.605000000     2.885000000
H     0.056000000     2.726000000     3.249000000
H     0.973000000     3.555000000     2.375000000
O     5.948000000    -2.015000000    -1.905000000
H     6.362000000    -1.194000000    -1.637000000
H     6.493000000    -2.334000000    -2.625000000
O    -3.445000000    -5.149000000    -2.268000000
H    -4.364000000    -4.893000000    -2.342000000
H    -3.098000000    -4.600000000    -1.564000000
O     4.401000000    -2.222000000     3.730000000
H     4.262000000    -2.937000000     3.109000000
H     3.518000000    -1.928000000     3.958000000
