158
-3069.69975
C     0.758000000    -0.570000000     1.120000000
H     1.453000000    -0.928000000     1.876000000
C     1.301000000     0.061000000     0.013000000
H     2.380000000     0.163000000    -0.071000000
C     0.461000000     0.602000000    -0.950000000
H     0.967000000     0.977000000    -1.892000000
C    -0.928000000     0.543000000    -0.801000000
H    -1.597000000     0.966000000    -1.546000000
C    -1.487000000    -0.170000000     0.285000000
H    -2.560000000    -0.340000000     0.339000000
C    -0.629000000    -0.705000000     1.244000000
C    -1.216000000    -1.385000000     2.460000000
O    -2.236000000    -0.927000000     2.978000000
O    -0.614000000    -2.379000000     2.863000000
O     6.574000000    -0.247000000    -1.040000000
H     6.686000000     0.247000000    -0.228000000
H     7.320000000    -0.846000000    -1.061000000
O     4.574000000     3.187000000    -6.206000000
H     3.850000000     3.014000000    -5.604000000
H     4.149000000     3.456000000    -7.021000000
O    -0.893000000     1.529000000     4.330000000
H    -1.355000000     1.071000000     3.628000000
H    -1.568000000     2.055000000     4.758000000
O     0.286000000    -4.691000000     1.726000000
H    -0.055000000    -3.863000000     2.065000000
H    -0.328000000    -4.937000000     1.034000000
O     1.340000000    -1.675000000     7.697000000
H     0.958000000    -2.083000000     6.920000000
H     1.895000000    -0.975000000     7.352000000
O    -4.309000000     0.474000000     2.491000000
H    -4.247000000     1.078000000     3.231000000
H    -3.716000000    -0.243000000     2.716000000
O    -4.146000000     0.935000000     6.647000000
H    -5.014000000     0.869000000     6.249000000
H    -3.635000000     0.247000000     6.221000000
O     1.694000000     1.107000000     4.527000000
H     1.998000000     1.559000000     5.314000000
H     0.749000000     1.254000000     4.516000000
O     3.941000000     0.278000000    -2.152000000
H     4.669000000     0.194000000    -1.536000000
H     4.198000000     0.996000000    -2.730000000
O     4.581000000     2.673000000    -3.378000000
H     5.213000000     3.157000000    -3.909000000
H     4.337000000     3.282000000    -2.681000000
O     0.868000000    -6.884000000     4.684000000
H     1.818000000    -6.931000000     4.787000000
H     0.678000000    -5.947000000     4.640000000
O     3.821000000     3.298000000     1.193000000
H     3.709000000     2.496000000     1.703000000
H     3.555000000     3.999000000     1.788000000
O    -6.763000000    -0.882000000     3.561000000
H    -6.014000000    -0.939000000     2.968000000
H    -7.365000000    -1.559000000     3.252000000
O    -5.111000000     0.562000000     0.043000000
H    -4.973000000     1.393000000    -0.412000000
H    -4.755000000     0.707000000     0.920000000
O     2.431000000    -0.904000000    -3.839000000
H     1.585000000    -0.486000000    -3.678000000
H     3.036000000    -0.456000000    -3.249000000
O     4.784000000     4.105000000    -1.094000000
H     5.713000000     3.878000000    -1.086000000
H     4.434000000     3.711000000    -0.295000000
O     4.866000000    -1.809000000     4.522000000
H     4.692000000    -2.012000000     3.603000000
H     4.352000000    -2.452000000     5.011000000
O    -2.806000000     4.656000000    -1.041000000
H    -2.016000000     4.237000000    -0.698000000
H    -2.480000000     5.326000000    -1.642000000
O    -3.410000000     1.090000000    -3.818000000
H    -3.750000000     0.357000000    -3.305000000
H    -3.615000000     0.863000000    -4.725000000
O     0.138000000    -4.317000000     4.821000000
H    -0.201000000    -3.715000000     4.159000000
H    -0.560000000    -4.371000000     5.475000000
O    -2.465000000    -3.941000000     6.039000000
H    -3.195000000    -3.557000000     5.554000000
H    -2.695000000    -4.867000000     6.123000000
O     7.036000000     0.821000000     1.497000000
H     6.172000000     0.980000000     1.879000000
H     7.484000000     1.664000000     1.557000000
O     2.093000000     5.096000000    -4.831000000
H     1.190000000     5.414000000    -4.820000000
H     2.307000000     4.950000000    -3.910000000
O    -4.123000000    -5.410000000     1.241000000
H    -3.975000000    -4.776000000     0.539000000
H    -3.745000000    -4.998000000     2.018000000
O    -0.935000000     0.983000000    -7.364000000
H    -0.460000000     1.789000000    -7.158000000
H    -1.032000000     0.998000000    -8.316000000
O    -4.949000000    -2.392000000     1.035000000
H    -4.848000000    -1.453000000     0.878000000
H    -5.801000000    -2.608000000     0.655000000
O     3.998000000     0.755000000     2.154000000
H     4.011000000    -0.136000000     1.804000000
H     3.318000000     0.737000000     2.828000000
O    -3.921000000    -5.892000000     4.496000000
H    -4.806000000    -6.188000000     4.283000000
H    -3.858000000    -5.022000000     4.102000000
O     1.983000000    -3.179000000    -5.568000000
H     2.222000000    -2.527000000    -4.910000000
H     2.820000000    -3.509000000    -5.893000000
O     5.548000000    -1.172000000    -4.892000000
H     4.767000000    -1.325000000    -4.360000000
H     6.267000000    -1.152000000    -4.260000000
O     4.116000000    -2.340000000     1.919000000
H     4.637000000    -2.349000000     1.116000000
H     3.423000000    -2.981000000     1.762000000
O    -1.256000000     2.807000000    -3.893000000
H    -2.065000000     2.401000000    -3.579000000
H    -1.427000000     2.999000000    -4.815000000
O    -1.190000000     1.131000000     7.548000000
H    -1.349000000     0.353000000     7.014000000
H    -1.924000000     1.712000000     7.348000000
O    -3.498000000    -3.387000000     3.365000000
H    -4.027000000    -3.212000000     2.587000000
H    -2.954000000    -2.606000000     3.467000000
O     0.083000000     0.427000000    -4.482000000
H    -0.235000000     1.314000000    -4.310000000
H    -0.014000000     0.317000000    -5.428000000
O    -0.347000000     3.594000000    -0.700000000
H    -0.467000000     3.153000000    -1.541000000
H     0.218000000     3.006000000    -0.199000000
O     2.955000000    -4.685000000     1.430000000
H     2.010000000    -4.711000000     1.582000000
H     3.181000000    -5.578000000     1.171000000
O     3.423000000    -3.752000000     5.449000000
H     3.613000000    -4.608000000     5.065000000
H     2.743000000    -3.383000000     4.886000000
O    -3.904000000    -0.822000000    -1.823000000
H    -3.014000000    -0.968000000    -1.503000000
H    -4.349000000    -0.380000000    -1.100000000
O    -4.592000000     2.643000000    -1.797000000
H    -4.079000000     2.190000000    -2.466000000
H    -4.070000000     3.416000000    -1.579000000
O    -1.304000000    -4.516000000    -0.812000000
H    -0.778000000    -3.780000000    -1.125000000
H    -2.088000000    -4.502000000    -1.362000000
O     0.331000000    -2.627000000    -1.361000000
H     1.245000000    -2.905000000    -1.407000000
H     0.353000000    -1.810000000    -0.863000000
O     1.599000000    -1.740000000     4.685000000
H     0.982000000    -1.880000000     3.968000000
H     1.771000000    -0.798000000     4.673000000
O    -2.262000000    -1.038000000     5.643000000
H    -2.070000000    -1.202000000     4.719000000
H    -1.943000000    -1.817000000     6.097000000
O     2.825000000     0.439000000    -6.158000000
H     2.746000000    -0.020000000    -5.322000000
H     2.371000000     1.270000000    -6.020000000
O     1.072000000     2.700000000    -6.067000000
H     1.080000000     3.487000000    -5.523000000
H     1.410000000     2.991000000    -6.914000000
O    -1.312000000    -1.683000000    -3.042000000
H    -0.829000000    -1.091000000    -3.619000000
H    -0.668000000    -1.964000000    -2.393000000
O     2.322000000     4.906000000    -2.088000000
H     3.060000000     4.930000000    -1.479000000
H     1.551000000     5.026000000    -1.533000000
