158
-3034.83008
C    -0.546000000     1.065000000     0.973000000
H    -1.018000000     1.709000000     1.711000000
C    -0.247000000    -0.297000000     1.236000000
H    -0.583000000    -0.618000000     2.218000000
C     0.309000000    -1.160000000     0.279000000
H     0.569000000    -2.227000000     0.508000000
C     0.462000000    -0.743000000    -1.032000000
H     0.848000000    -1.460000000    -1.752000000
C     0.176000000     0.586000000    -1.325000000
H     0.313000000     1.021000000    -2.312000000
C    -0.300000000     1.483000000    -0.302000000
C    -0.358000000     3.012000000    -0.606000000
O    -0.229000000     3.411000000    -1.744000000
O    -0.483000000     3.797000000     0.365000000
O     3.848000000    -6.694000000    -0.253000000
H     3.768000000    -5.789000000    -0.554000000
H     3.369000000    -6.714000000     0.576000000
O    -2.535000000    -1.920000000    -4.662000000
H    -3.053000000    -2.045000000    -5.457000000
H    -3.185000000    -1.796000000    -3.970000000
O     1.325000000    -0.672000000     4.086000000
H     1.337000000    -1.598000000     4.327000000
H     1.930000000    -0.257000000     4.701000000
O    -0.409000000     7.943000000     3.120000000
H    -0.500000000     7.503000000     3.966000000
H    -1.020000000     7.483000000     2.545000000
O    -2.404000000    -4.427000000    -2.966000000
H    -2.380000000    -3.528000000    -2.637000000
H    -3.227000000    -4.782000000    -2.632000000
O     0.475000000     2.632000000    -4.299000000
H    -0.292000000     2.315000000    -4.776000000
H     0.161000000     2.770000000    -3.405000000
O     3.894000000    -4.565000000     3.007000000
H     3.459000000    -5.394000000     2.808000000
H     4.337000000    -4.721000000     3.841000000
O     0.427000000    -5.444000000    -1.700000000
H    -0.311000000    -4.968000000    -1.318000000
H     0.500000000    -6.237000000    -1.169000000
O    -1.223000000     5.237000000    -5.216000000
H    -0.760000000     4.716000000    -5.871000000
H    -0.545000000     5.787000000    -4.823000000
O     0.441000000     6.846000000    -4.037000000
H     0.746000000     7.157000000    -3.185000000
H     1.236000000     6.555000000    -4.485000000
O    -2.725000000     2.433000000     4.575000000
H    -2.269000000     2.730000000     3.788000000
H    -2.063000000     1.948000000     5.067000000
O     3.247000000     0.333000000     1.479000000
H     3.201000000    -0.454000000     2.022000000
H     2.374000000     0.720000000     1.543000000
O     4.496000000     3.285000000    -3.023000000
H     3.659000000     3.524000000    -3.420000000
H     4.454000000     2.334000000    -2.928000000
O    -4.012000000     1.315000000    -3.538000000
H    -4.027000000     0.680000000    -2.821000000
H    -4.225000000     2.150000000    -3.123000000
O    -5.773000000     5.006000000     0.454000000
H    -5.982000000     4.262000000     1.018000000
H    -4.817000000     5.017000000     0.416000000
O     4.010000000     0.111000000    -4.287000000
H     4.292000000    -0.005000000    -3.379000000
H     4.825000000     0.142000000    -4.789000000
O    -1.653000000    -4.539000000     0.040000000
H    -2.601000000    -4.483000000     0.158000000
H    -1.292000000    -3.986000000     0.733000000
O     0.963000000     3.780000000     2.689000000
H     0.607000000     3.704000000     1.803000000
H     1.381000000     4.641000000     2.706000000
O    -1.288000000    -3.510000000     2.555000000
H    -2.198000000    -3.361000000     2.811000000
H    -0.781000000    -2.929000000     3.121000000
O    -0.371000000    -6.985000000    -4.208000000
H    -1.278000000    -6.806000000    -4.457000000
H    -0.282000000    -6.602000000    -3.335000000
O     2.253000000     1.612000000    -5.902000000
H     2.844000000     1.186000000    -5.281000000
H     1.551000000     1.970000000    -5.358000000
O    -1.598000000    -0.862000000     4.620000000
H    -0.691000000    -0.574000000     4.514000000
H    -1.903000000    -0.408000000     5.406000000
O     0.583000000    -1.127000000    -6.023000000
H     0.236000000    -1.753000000    -5.388000000
H     1.377000000    -0.783000000    -5.612000000
O    -3.019000000     6.786000000     2.850000000
H    -2.751000000     5.877000000     2.989000000
H    -3.942000000     6.728000000     2.604000000
O     5.715000000    -3.444000000    -0.365000000
H     5.086000000    -3.687000000    -1.044000000
H     5.963000000    -2.544000000    -0.579000000
O    -3.979000000     1.459000000     2.276000000
H    -4.544000000     2.184000000     2.011000000
H    -3.640000000     1.721000000     3.132000000
O    -2.153000000     4.200000000     2.609000000
H    -2.363000000     4.270000000     1.677000000
H    -1.199000000     4.136000000     2.635000000
O    -4.380000000    -3.892000000     0.570000000
H    -4.087000000    -3.063000000     0.949000000
H    -4.681000000    -4.405000000     1.320000000
O    -0.033000000     1.701000000     4.290000000
H     0.419000000     0.857000000     4.286000000
H     0.483000000     2.251000000     3.701000000
O     0.405000000    -7.528000000    -0.171000000
H    -0.055000000    -8.119000000    -0.767000000
H     0.930000000    -8.106000000     0.382000000
O     5.179000000    -2.240000000     2.152000000
H     4.672000000    -2.788000000     2.751000000
H     5.332000000    -2.798000000     1.389000000
O    -2.102000000     0.906000000    -5.527000000
H    -1.591000000     0.109000000    -5.392000000
H    -2.674000000     0.958000000    -4.761000000
O    -3.480000000    -2.980000000     4.934000000
H    -3.086000000    -3.386000000     5.706000000
H    -2.994000000    -2.163000000     4.819000000
O    -0.076000000    -3.403000000    -4.264000000
H    -0.310000000    -4.121000000    -3.676000000
H    -0.911000000    -3.111000000    -4.630000000
O    -2.259000000     4.568000000    -2.963000000
H    -1.480000000     4.134000000    -2.614000000
H    -1.989000000     4.892000000    -3.822000000
O     2.310000000     4.783000000     0.132000000
H     1.369000000     4.756000000     0.304000000
H     2.381000000     5.147000000    -0.750000000
O     0.977000000    -3.412000000     4.221000000
H     0.908000000    -3.954000000     5.007000000
H     1.183000000    -4.031000000     3.520000000
O     3.662000000    -4.269000000    -1.932000000
H     3.594000000    -3.789000000    -2.757000000
H     2.763000000    -4.532000000    -1.733000000
O    -3.076000000     4.894000000     0.036000000
H    -2.192000000     4.572000000    -0.136000000
H    -3.075000000     5.789000000    -0.304000000
O    -0.519000000     7.857000000    -0.432000000
H    -0.430000000     7.079000000     0.117000000
H    -1.453000000     7.899000000    -0.639000000
O     2.482000000    -6.735000000     2.239000000
H     1.550000000    -6.521000000     2.277000000
H     2.547000000    -7.594000000     2.657000000
O    -4.660000000     0.497000000    -0.522000000
H    -5.587000000     0.735000000    -0.558000000
H    -4.509000000     0.263000000     0.394000000
O     3.980000000     0.766000000    -1.565000000
H     4.255000000     0.277000000    -0.789000000
H     3.074000000     1.013000000    -1.383000000
O    -4.503000000     3.284000000    -1.882000000
H    -3.725000000     3.768000000    -2.158000000
H    -4.488000000     3.331000000    -0.926000000
O    -2.772000000    -7.335000000     0.096000000
H    -3.034000000    -6.448000000    -0.148000000
H    -2.296000000    -7.663000000    -0.668000000
O    -0.004000000    -5.927000000     2.156000000
H    -0.398000000    -5.055000000     2.121000000
H    -0.031000000    -6.239000000     1.251000000
O    -3.470000000    -1.326000000     1.570000000
H    -2.681000000    -0.784000000     1.556000000
H    -4.017000000    -0.934000000     2.251000000
O     2.797000000    -3.473000000    -4.352000000
H     1.862000000    -3.272000000    -4.340000000
H     3.096000000    -3.173000000    -5.210000000
