158
-3022.94115
C    -0.475000000    -0.961000000     0.982000000
H    -0.813000000    -1.846000000     1.516000000
C     0.320000000    -1.227000000    -0.154000000
H     0.546000000    -2.237000000    -0.486000000
C     0.698000000    -0.208000000    -1.008000000
H     1.206000000    -0.461000000    -1.941000000
C     0.327000000     1.077000000    -0.694000000
H     0.623000000     1.884000000    -1.359000000
C    -0.401000000     1.363000000     0.481000000
H    -0.836000000     2.337000000     0.690000000
C    -0.800000000     0.341000000     1.353000000
C    -1.802000000     0.611000000     2.425000000
O    -1.982000000     1.693000000     2.942000000
O    -2.235000000    -0.376000000     2.998000000
O    -0.288000000     5.963000000    -0.969000000
H    -0.911000000     6.269000000    -1.628000000
H     0.244000000     6.732000000    -0.767000000
O     0.299000000    -2.454000000    -7.554000000
H     1.181000000    -2.280000000    -7.223000000
H    -0.169000000    -2.825000000    -6.805000000
O     0.341000000    -3.545000000     3.272000000
H    -0.146000000    -3.186000000     4.014000000
H    -0.280000000    -4.129000000     2.837000000
O     1.396000000    -4.637000000    -5.061000000
H     2.112000000    -4.689000000    -5.694000000
H     0.752000000    -5.273000000    -5.374000000
O    -3.452000000     3.794000000     2.014000000
H    -2.967000000     2.998000000     2.232000000
H    -4.067000000     3.521000000     1.333000000
O    -5.812000000     2.554000000     5.436000000
H    -5.941000000     2.056000000     6.243000000
H    -4.890000000     2.811000000     5.458000000
O     6.637000000    -2.171000000    -1.162000000
H     6.067000000    -1.430000000    -0.957000000
H     6.121000000    -2.713000000    -1.760000000
O     1.825000000     0.492000000     3.747000000
H     1.577000000    -0.080000000     4.474000000
H     1.076000000     1.077000000     3.636000000
O    -0.209000000    -4.404000000    -2.151000000
H    -0.968000000    -4.673000000    -1.633000000
H    -0.561000000    -3.777000000    -2.783000000
O     4.601000000     2.199000000    -3.112000000
H     4.730000000     3.142000000    -3.006000000
H     4.019000000     2.121000000    -3.868000000
O     2.016000000     3.381000000     0.254000000
H     1.554000000     4.073000000     0.726000000
H     1.580000000     3.338000000    -0.597000000
O    -4.890000000    -1.284000000     1.223000000
H    -5.618000000    -1.109000000     0.627000000
H    -5.055000000    -0.717000000     1.976000000
O    -1.793000000     0.704000000    -5.394000000
H    -2.518000000     0.836000000    -4.783000000
H    -1.272000000     1.505000000    -5.324000000
O     1.605000000    -2.183000000    -3.751000000
H     1.414000000    -2.983000000    -4.241000000
H     0.959000000    -2.175000000    -3.044000000
O     2.777000000     0.152000000     1.086000000
H     2.110000000     0.401000000     0.447000000
H     2.436000000     0.464000000     1.923000000
O    -4.266000000     6.318000000     1.836000000
H    -3.966000000     5.412000000     1.914000000
H    -5.101000000     6.334000000     2.304000000
O    -3.912000000     0.252000000    -3.521000000
H    -3.593000000     0.115000000    -2.629000000
H    -4.801000000     0.589000000    -3.408000000
O    -3.089000000    -0.051000000    -0.786000000
H    -2.262000000     0.296000000    -0.451000000
H    -3.323000000    -0.747000000    -0.172000000
O    -1.886000000     0.140000000     7.477000000
H    -1.474000000    -0.564000000     7.978000000
H    -2.067000000    -0.248000000     6.622000000
O    -3.765000000    -2.036000000     6.681000000
H    -3.626000000    -2.915000000     7.032000000
H    -3.181000000    -1.984000000     5.925000000
O    -3.551000000    -5.538000000     3.418000000
H    -3.371000000    -4.646000000     3.121000000
H    -4.389000000    -5.473000000     3.876000000
O     2.846000000    -4.862000000    -2.103000000
H     2.665000000    -4.553000000    -1.215000000
H     1.982000000    -4.982000000    -2.495000000
O     0.489000000     2.959000000     3.454000000
H     0.524000000     3.670000000     2.815000000
H    -0.400000000     2.612000000     3.377000000
O    -2.261000000     5.213000000     4.328000000
H    -3.054000000     5.050000000     3.818000000
H    -2.196000000     4.462000000     4.918000000
O    -7.200000000    -1.534000000     4.528000000
H    -6.326000000    -1.207000000     4.317000000
H    -7.783000000    -1.061000000     3.933000000
O     5.397000000    -4.232000000    -2.740000000
H     4.444000000    -4.247000000    -2.825000000
H     5.637000000    -5.145000000    -2.580000000
O     5.268000000     0.725000000    -6.288000000
H     4.640000000     0.450000000    -6.957000000
H     4.969000000     0.294000000    -5.488000000
O     4.824000000    -0.159000000    -1.307000000
H     4.941000000     0.597000000    -1.883000000
H     4.076000000     0.073000000    -0.757000000
O     3.029000000    -2.855000000     3.878000000
H     3.520000000    -2.516000000     3.130000000
H     2.204000000    -3.162000000     3.504000000
O    -1.323000000     3.351000000    -2.237000000
H    -1.235000000     4.027000000    -1.566000000
H    -1.908000000     2.701000000    -1.848000000
O    -2.987000000    -4.759000000    -1.268000000
H    -3.356000000    -4.243000000    -1.985000000
H    -3.407000000    -5.615000000    -1.349000000
O    -2.643000000     2.884000000     5.365000000
H    -2.485000000     2.318000000     4.609000000
H    -1.995000000     2.607000000     6.012000000
O     2.696000000    -3.885000000     0.389000000
H     3.411000000    -3.326000000     0.692000000
H     1.968000000    -3.683000000     0.976000000
O    -3.040000000    -3.093000000     2.496000000
H    -3.687000000    -2.629000000     1.965000000
H    -2.526000000    -2.399000000     2.908000000
O     2.636000000     3.668000000     4.927000000
H     1.758000000     3.531000000     4.571000000
H     3.050000000     4.278000000     4.317000000
O     3.927000000    -0.829000000    -4.028000000
H     3.115000000    -1.266000000    -3.773000000
H     4.301000000    -0.520000000    -3.202000000
O     0.399000000     4.827000000     1.547000000
H     0.299000000     5.577000000     2.132000000
H    -0.069000000     5.079000000     0.750000000
O     2.620000000     2.446000000    -5.143000000
H     2.520000000     3.079000000    -5.854000000
H     1.825000000     1.915000000    -5.181000000
O     4.535000000    -1.715000000     1.715000000
H     5.084000000    -1.125000000     2.231000000
H     3.960000000    -1.133000000     1.219000000
O    -1.199000000    -1.807000000     4.906000000
H    -1.511000000    -1.229000000     4.209000000
H    -0.444000000    -1.350000000     5.277000000
O     0.970000000    -7.073000000    -2.871000000
H     0.709000000    -7.238000000    -3.777000000
H     0.847000000    -6.131000000    -2.753000000
O    -4.031000000     3.159000000    -0.845000000
H    -4.302000000     3.571000000    -1.666000000
H    -4.681000000     2.472000000    -0.697000000
O    -1.442000000    -5.117000000     1.220000000
H    -1.785000000    -5.430000000     0.383000000
H    -1.998000000    -4.371000000     1.443000000
O    -1.762000000    -2.300000000    -3.336000000
H    -2.650000000    -2.626000000    -3.190000000
H    -1.874000000    -1.360000000    -3.483000000
O    -5.118000000     0.231000000     3.734000000
H    -4.177000000     0.057000000     3.698000000
H    -5.197000000     0.998000000     4.301000000
O     4.387000000     4.693000000    -0.062000000
H     4.573000000     4.703000000    -1.001000000
H     3.589000000     4.171000000     0.018000000
O     2.888000000    -1.741000000    -6.782000000
H     2.895000000    -1.028000000    -7.421000000
H     2.929000000    -1.301000000    -5.933000000
O    -0.270000000     2.984000000    -4.762000000
H    -0.505000000     3.106000000    -3.842000000
H    -0.121000000     3.870000000    -5.091000000
