158
-3040.38860
C    -0.323000000    -1.148000000     0.889000000
H    -0.470000000    -2.109000000     1.374000000
C     0.268000000    -1.249000000    -0.374000000
H     0.479000000    -2.203000000    -0.851000000
C     0.574000000    -0.131000000    -1.075000000
H     0.951000000    -0.199000000    -2.131000000
C     0.251000000     1.104000000    -0.574000000
H     0.399000000     1.989000000    -1.189000000
C    -0.309000000     1.254000000     0.655000000
H    -0.540000000     2.201000000     1.136000000
C    -0.618000000     0.093000000     1.448000000
C    -1.266000000     0.266000000     2.769000000
O    -1.215000000     1.339000000     3.352000000
O    -1.947000000    -0.619000000     3.259000000
O    -2.006000000     6.032000000    -2.960000000
H    -1.791000000     6.588000000    -3.709000000
H    -1.836000000     5.141000000    -3.265000000
O    -0.460000000    -3.294000000     7.667000000
H    -0.834000000    -4.175000000     7.651000000
H    -0.614000000    -2.952000000     6.787000000
O     0.034000000    -5.942000000     3.144000000
H    -0.547000000    -6.683000000     3.319000000
H    -0.486000000    -5.354000000     2.596000000
O     2.134000000    -2.135000000     4.577000000
H     2.425000000    -1.690000000     5.373000000
H     2.734000000    -2.875000000     4.484000000
O    -2.768000000     3.538000000     2.514000000
H    -2.099000000     3.003000000     2.942000000
H    -3.167000000     2.953000000     1.870000000
O     2.540000000    -0.191000000     2.296000000
H     1.933000000    -0.709000000     2.824000000
H     2.222000000     0.708000000     2.378000000
O     0.746000000    -4.753000000    -4.229000000
H    -0.102000000    -5.145000000    -4.439000000
H     0.570000000    -3.813000000    -4.183000000
O     4.823000000     1.617000000    -4.404000000
H     5.144000000     2.337000000    -4.947000000
H     4.028000000     1.960000000    -3.996000000
O     4.709000000    -3.646000000    -3.732000000
H     4.246000000    -2.987000000    -4.248000000
H     4.031000000    -4.042000000    -3.185000000
O    -4.131000000    -0.044000000     0.376000000
H    -4.306000000     0.058000000     1.312000000
H    -4.245000000     0.835000000     0.014000000
O     1.055000000     0.488000000    -4.730000000
H     0.185000000     0.669000000    -4.374000000
H     1.634000000     1.094000000    -4.266000000
O     2.728000000    -2.343000000    -5.149000000
H     2.496000000    -2.748000000    -5.984000000
H     2.369000000    -1.457000000    -5.204000000
O    -1.052000000     3.694000000     6.113000000
H    -0.160000000     3.349000000     6.163000000
H    -1.006000000     4.381000000     5.448000000
O     3.500000000     1.341000000    -0.376000000
H     2.926000000     2.074000000    -0.152000000
H     3.247000000     0.645000000     0.231000000
O    -3.037000000     6.333000000     2.860000000
H    -2.650000000     5.468000000     2.723000000
H    -3.817000000     6.337000000     2.305000000
O     1.608000000     4.790000000     4.063000000
H     2.096000000     4.700000000     4.881000000
H     0.980000000     5.493000000     4.235000000
O    -2.185000000     0.683000000    -4.065000000
H    -2.266000000     0.177000000    -3.257000000
H    -3.015000000     1.155000000    -4.136000000
O    -2.254000000    -0.785000000    -1.637000000
H    -1.624000000    -0.520000000    -0.966000000
H    -3.083000000    -0.868000000    -1.167000000
O     0.176000000    -0.403000000     7.422000000
H    -0.209000000    -0.630000000     8.269000000
H    -0.286000000    -0.957000000     6.793000000
O     0.808000000     3.774000000    -5.467000000
H     0.380000000     4.629000000    -5.451000000
H     1.663000000     3.942000000    -5.863000000
O    -4.416000000    -5.081000000     3.592000000
H    -3.902000000    -4.306000000     3.367000000
H    -4.472000000    -5.063000000     4.548000000
O     2.796000000    -5.140000000    -2.557000000
H     2.249000000    -5.203000000    -1.774000000
H     2.173000000    -5.098000000    -3.283000000
O     1.500000000     2.107000000     3.132000000
H     1.674000000     2.958000000     3.533000000
H     0.553000000     1.992000000     3.214000000
O    -1.267000000    -3.040000000    -6.769000000
H    -0.994000000    -2.128000000    -6.874000000
H    -2.028000000    -3.129000000    -7.342000000
O     2.776000000     5.809000000     1.742000000
H     2.419000000     5.397000000     2.529000000
H     2.451000000     6.709000000     1.774000000
O    -4.464000000    -2.543000000    -3.397000000
H    -5.224000000    -2.515000000    -2.816000000
H    -3.710000000    -2.531000000    -2.807000000
O    -6.258000000    -2.156000000     2.637000000
H    -5.653000000    -1.558000000     3.074000000
H    -6.922000000    -1.586000000     2.251000000
O     5.256000000    -0.236000000    -2.060000000
H     4.884000000     0.138000000    -2.859000000
H     4.764000000     0.178000000    -1.351000000
O    -1.306000000     3.564000000    -3.734000000
H    -0.598000000     3.593000000    -4.377000000
H    -1.533000000     2.636000000    -3.670000000
O    -1.882000000    -4.951000000    -1.819000000
H    -1.223000000    -4.327000000    -2.123000000
H    -2.015000000    -5.541000000    -2.561000000
O    -2.605000000     1.434000000     5.563000000
H    -2.307000000     1.171000000     4.692000000
H    -2.464000000     2.381000000     5.588000000
O    -5.081000000     3.161000000     3.890000000
H    -5.485000000     3.959000000     4.231000000
H    -4.193000000     3.427000000     3.650000000
O     1.421000000    -5.822000000    -0.050000000
H     2.004000000    -6.214000000     0.600000000
H     0.689000000    -5.478000000     0.462000000
O    -3.046000000    -2.897000000     2.473000000
H    -3.443000000    -2.683000000     1.628000000
H    -2.680000000    -2.069000000     2.782000000
O     3.613000000     1.872000000     4.946000000
H     3.035000000     1.447000000     4.313000000
H     4.489000000     1.561000000     4.716000000
O     3.386000000    -1.855000000    -0.510000000
H     2.537000000    -1.415000000    -0.470000000
H     3.408000000    -2.256000000    -1.379000000
O     2.512000000     3.945000000    -0.637000000
H     2.511000000     4.256000000     0.268000000
H     2.930000000     4.649000000    -1.132000000
O     2.818000000     0.683000000    -6.762000000
H     3.094000000     1.598000000    -6.716000000
H     2.122000000     0.609000000    -6.109000000
O     5.113000000    -3.225000000     1.279000000
H     4.724000000    -2.693000000     0.584000000
H     5.587000000    -3.916000000     0.815000000
O    -0.548000000    -1.715000000     5.279000000
H    -1.040000000    -1.335000000     4.552000000
H     0.256000000    -2.045000000     4.877000000
O    -3.352000000     2.502000000    -0.940000000
H    -2.631000000     3.131000000    -0.898000000
H    -4.079000000     2.997000000    -1.318000000
O    -1.753000000    -4.888000000     1.189000000
H    -2.115000000    -4.850000000     0.303000000
H    -2.303000000    -4.293000000     1.698000000
O    -0.776000000    -2.433000000    -3.408000000
H    -1.078000000    -1.681000000    -2.899000000
H    -1.349000000    -2.449000000    -4.175000000
O     1.358000000     2.250000000     6.504000000
H     2.233000000     1.967000000     6.238000000
H     0.899000000     1.439000000     6.722000000
O    -0.359000000    -0.489000000    -7.126000000
H     0.122000000    -0.048000000    -6.426000000
H    -0.816000000     0.216000000    -7.584000000
O    -4.552000000     0.203000000     3.177000000
H    -3.636000000     0.169000000     3.453000000
H    -4.989000000     0.712000000     3.859000000
O    -3.793000000     0.017000000     7.480000000
H    -3.502000000     0.523000000     6.722000000
H    -3.101000000    -0.630000000     7.618000000
O     2.441000000     2.390000000    -3.188000000
H     1.814000000     3.109000000    -3.271000000
H     2.585000000     2.307000000    -2.245000000
