158
-3032.84593
C    -1.151000000    -0.851000000     0.167000000
H    -1.938000000    -1.601000000     0.174000000
C    -0.129000000    -1.064000000    -0.804000000
H    -0.245000000    -1.880000000    -1.513000000
C     0.900000000    -0.134000000    -0.858000000
H     1.620000000    -0.219000000    -1.723000000
C     0.946000000     0.855000000     0.079000000
H     1.812000000     1.510000000     0.124000000
C    -0.036000000     1.095000000     1.035000000
H    -0.039000000     1.962000000     1.690000000
C    -1.143000000     0.216000000     1.075000000
C    -2.239000000     0.499000000     2.105000000
O    -2.146000000     1.358000000     2.918000000
O    -3.258000000    -0.140000000     1.968000000
O     4.229000000     1.346000000    -5.140000000
H     4.800000000     2.106000000    -5.023000000
H     3.400000000     1.605000000    -4.737000000
O     4.050000000     2.589000000    -2.428000000
H     3.245000000     2.648000000    -2.941000000
H     4.388000000     1.712000000    -2.612000000
O     4.474000000    -3.738000000    -0.481000000
H     5.296000000    -3.971000000    -0.049000000
H     4.054000000    -3.122000000     0.119000000
O    -3.733000000     3.092000000     0.477000000
H    -2.946000000     2.548000000     0.489000000
H    -4.313000000     2.660000000    -0.150000000
O     1.814000000     2.451000000    -4.062000000
H     1.701000000     2.740000000    -4.967000000
H     0.935000000     2.498000000    -3.684000000
O     1.349000000    -4.043000000     2.221000000
H     1.707000000    -3.197000000     1.951000000
H     2.118000000    -4.596000000     2.358000000
O     2.973000000    -2.119000000     1.137000000
H     2.578000000    -1.392000000     0.657000000
H     3.380000000    -1.709000000     1.900000000
O    -4.238000000     0.047000000    -1.340000000
H    -5.112000000    -0.103000000    -1.701000000
H    -4.269000000    -0.345000000    -0.468000000
O    -3.790000000    -1.303000000    -3.887000000
H    -4.545000000    -1.890000000    -3.833000000
H    -3.898000000    -0.705000000    -3.147000000
O    -0.477000000    -0.651000000     7.210000000
H     0.060000000    -0.983000000     6.491000000
H    -0.925000000     0.111000000     6.843000000
O    -1.388000000     4.243000000     6.013000000
H    -0.843000000     5.030000000     6.003000000
H    -1.808000000     4.231000000     5.153000000
O     3.472000000    -5.765000000    -1.838000000
H     3.194000000    -5.253000000    -2.598000000
H     3.637000000    -5.112000000    -1.158000000
O    -6.377000000    -1.829000000     4.926000000
H    -5.558000000    -1.347000000     4.805000000
H    -6.832000000    -1.741000000     4.089000000
O    -6.545000000     3.842000000     1.910000000
H    -5.712000000     4.006000000     1.467000000
H    -7.032000000     4.660000000     1.815000000
O    -1.682000000     4.082000000     3.148000000
H    -0.751000000     3.927000000     3.309000000
H    -2.053000000     3.208000000     3.025000000
O    -0.558000000    -5.407000000     0.667000000
H     0.153000000    -5.165000000     1.262000000
H    -0.822000000    -6.281000000     0.953000000
O    -0.719000000     3.709000000    -3.282000000
H    -1.379000000     4.301000000    -3.642000000
H    -0.636000000     3.971000000    -2.365000000
O    -0.809000000    -6.368000000    -4.167000000
H    -0.482000000    -5.949000000    -4.963000000
H    -0.588000000    -5.754000000    -3.466000000
O    -3.440000000    -3.304000000    -1.439000000
H    -4.064000000    -3.794000000    -1.974000000
H    -3.277000000    -2.502000000    -1.937000000
O     4.994000000     4.549000000     2.828000000
H     5.924000000     4.361000000     2.949000000
H     4.795000000     4.222000000     1.951000000
O     0.690000000    -2.168000000     5.294000000
H     1.082000000    -1.758000000     4.523000000
H     1.228000000    -2.944000000     5.453000000
O     4.283000000     1.066000000     1.894000000
H     5.233000000     0.979000000     1.972000000
H     4.158000000     1.782000000     1.272000000
O    -4.790000000     1.949000000     7.571000000
H    -4.435000000     2.374000000     6.790000000
H    -5.727000000     1.865000000     7.393000000
O     0.419000000     5.908000000     1.085000000
H     0.194000000     6.587000000     1.721000000
H     0.843000000     5.225000000     1.605000000
O    -7.543000000     1.844000000    -0.148000000
H    -7.382000000     1.151000000    -0.789000000
H    -7.057000000     1.569000000     0.629000000
O    -4.244000000     2.192000000     4.423000000
H    -3.656000000     1.955000000     3.705000000
H    -4.551000000     3.071000000     4.200000000
O    -7.826000000    -1.061000000     2.452000000
H    -8.782000000    -1.091000000     2.478000000
H    -7.610000000    -0.143000000     2.616000000
O     1.786000000     4.016000000     2.427000000
H     2.096000000     3.111000000     2.382000000
H     2.275000000     4.400000000     3.156000000
O     0.807000000    -3.270000000    -5.009000000
H     0.362000000    -2.422000000    -5.023000000
H     0.350000000    -3.791000000    -5.669000000
O     3.873000000    -1.279000000    -5.699000000
H     3.820000000    -0.323000000    -5.671000000
H     3.444000000    -1.566000000    -4.893000000
O    -1.407000000     5.443000000    -1.023000000
H    -0.748000000     5.597000000    -0.346000000
H    -2.197000000     5.205000000    -0.538000000
O    -3.770000000    -0.847000000     4.416000000
H    -3.620000000    -0.469000000     3.549000000
H    -2.986000000    -0.620000000     4.915000000
O     2.660000000    -0.113000000     3.520000000
H     3.355000000     0.401000000     3.109000000
H     2.252000000     0.489000000     4.142000000
O     3.588000000    -1.977000000    -2.351000000
H     4.111000000    -2.499000000    -1.742000000
H     2.817000000    -2.517000000    -2.526000000
O     5.134000000     0.243000000    -2.367000000
H     5.707000000     0.047000000    -3.108000000
H     4.496000000    -0.470000000    -2.363000000
O    -2.975000000    -4.118000000     1.446000000
H    -3.436000000    -3.547000000     0.831000000
H    -2.049000000    -3.995000000     1.238000000
O     2.909000000    -4.562000000    -4.181000000
H     3.578000000    -4.217000000    -4.772000000
H     2.091000000    -4.178000000    -4.495000000
O     1.574000000     1.448000000     5.486000000
H     0.684000000     1.417000000     5.136000000
H     1.690000000     2.356000000     5.766000000
O     7.949000000     1.007000000    -0.925000000
H     7.061000000     0.907000000    -0.580000000
H     8.129000000     1.945000000    -0.855000000
O    -5.729000000     0.918000000     1.783000000
H    -4.974000000     0.332000000     1.831000000
H    -5.623000000     1.508000000     2.529000000
O     3.998000000     3.478000000     0.283000000
H     4.082000000     3.032000000    -0.559000000
H     3.337000000     4.154000000     0.131000000
O    -1.023000000    -4.606000000    -1.796000000
H    -0.768000000    -4.870000000    -0.912000000
H    -1.883000000    -4.200000000    -1.685000000
O    -1.318000000     1.447000000     5.317000000
H    -1.738000000     2.249000000     5.628000000
H    -1.728000000     1.275000000     4.470000000
O    -5.692000000    -2.186000000     1.119000000
H    -4.855000000    -1.894000000     1.481000000
H    -6.350000000    -1.689000000     1.604000000
O    -1.054000000    -1.123000000    -5.190000000
H    -1.011000000    -0.180000000    -5.349000000
H    -1.971000000    -1.286000000    -4.966000000
O     2.312000000     5.736000000    -1.009000000
H     1.630000000     5.854000000    -0.348000000
H     2.851000000     6.524000000    -0.941000000
O    -1.231000000     2.026000000    -5.720000000
H    -2.171000000     2.115000000    -5.880000000
H    -1.110000000     2.341000000    -4.825000000
O     6.446000000    -1.579000000    -4.574000000
H     5.538000000    -1.750000000    -4.820000000
H     6.896000000    -1.427000000    -5.405000000
