158
-3054.97415
C    -1.398000000    -0.633000000    -0.062000000
H    -2.368000000    -1.062000000    -0.299000000
C    -0.452000000    -0.539000000    -1.111000000
H    -0.688000000    -0.864000000    -2.122000000
C     0.814000000     0.065000000    -0.911000000
H     1.513000000     0.186000000    -1.721000000
C     1.157000000     0.467000000     0.344000000
H     2.125000000     0.905000000     0.574000000
C     0.207000000     0.454000000     1.336000000
H     0.474000000     0.881000000     2.299000000
C    -1.131000000     0.027000000     1.172000000
C    -2.045000000     0.051000000     2.324000000
O    -1.694000000     0.725000000     3.298000000
O    -3.231000000    -0.251000000     2.211000000
O    -2.716000000     4.401000000     4.751000000
H    -3.102000000     5.263000000     4.592000000
H    -2.424000000     4.108000000     3.888000000
O     5.314000000     0.222000000    -2.744000000
H     6.056000000    -0.362000000    -2.904000000
H     4.550000000    -0.354000000    -2.752000000
O    -6.317000000    -3.730000000     3.952000000
H    -5.989000000    -2.835000000     3.860000000
H    -5.769000000    -4.248000000     3.363000000
O     5.121000000    -3.765000000    -1.412000000
H     5.220000000    -2.928000000    -0.958000000
H     5.403000000    -4.419000000    -0.773000000
O    -2.823000000     2.680000000    -0.761000000
H    -2.940000000     2.546000000     0.179000000
H    -3.183000000     1.889000000    -1.163000000
O     2.937000000    -3.100000000     2.755000000
H     2.326000000    -3.295000000     2.045000000
H     3.270000000    -2.226000000     2.552000000
O    -4.257000000    -5.017000000     2.825000000
H    -4.104000000    -4.306000000     2.202000000
H    -3.483000000    -5.575000000     2.747000000
O     1.036000000     2.719000000     5.222000000
H     0.425000000     2.681000000     5.958000000
H     1.822000000     3.128000000     5.584000000
O    -4.459000000     0.419000000    -1.821000000
H    -5.090000000    -0.269000000    -2.033000000
H    -4.686000000     0.684000000    -0.929000000
O    -2.859000000    -0.044000000    -4.215000000
H    -3.526000000     0.467000000    -4.674000000
H    -3.232000000    -0.201000000    -3.348000000
O    -2.038000000    -2.996000000     4.094000000
H    -2.909000000    -2.738000000     3.793000000
H    -1.690000000    -2.212000000     4.519000000
O     1.722000000     3.514000000     2.462000000
H     1.568000000     3.095000000     3.309000000
H     2.614000000     3.259000000     2.226000000
O    -4.776000000    -1.418000000     3.948000000
H    -4.099000000    -0.830000000     3.614000000
H    -5.083000000    -0.996000000     4.751000000
O    -5.635000000     3.049000000     2.650000000
H    -6.156000000     3.776000000     2.308000000
H    -5.240000000     3.394000000     3.451000000
O    -1.258000000     3.951000000     1.924000000
H    -0.858000000     4.582000000     2.523000000
H    -1.073000000     3.098000000     2.317000000
O    -0.431000000     1.655000000    -4.423000000
H    -0.655000000     0.744000000    -4.231000000
H    -0.372000000     2.073000000    -3.564000000
O    -2.155000000    -2.951000000    -4.473000000
H    -2.899000000    -3.353000000    -4.922000000
H    -2.196000000    -2.028000000    -4.722000000
O     4.779000000     1.190000000    -0.391000000
H     5.029000000     1.006000000    -1.297000000
H     4.433000000     2.083000000    -0.415000000
O     4.458000000    -1.380000000     0.603000000
H     3.977000000    -1.607000000    -0.193000000
H     4.462000000    -0.423000000     0.616000000
O    -2.128000000     0.329000000     7.017000000
H    -2.923000000     0.615000000     6.568000000
H    -2.431000000    -0.322000000     7.650000000
O     5.516000000     4.942000000     0.667000000
H     4.972000000     5.702000000     0.876000000
H     5.128000000     4.224000000     1.168000000
O     1.599000000     4.944000000    -0.173000000
H     0.868000000     5.561000000    -0.194000000
H     1.605000000     4.610000000     0.724000000
O    -0.232000000    -4.784000000     2.794000000
H     0.210000000    -5.260000000     3.497000000
H    -0.601000000    -4.012000000     3.223000000
O    -3.903000000     1.839000000     4.917000000
H    -3.593000000     2.733000000     5.067000000
H    -3.314000000     1.491000000     4.247000000
O    -6.829000000    -2.012000000     1.368000000
H    -7.649000000    -2.230000000     0.924000000
H    -7.010000000    -1.184000000     1.812000000
O     4.569000000     2.934000000     2.349000000
H     4.992000000     2.156000000     1.986000000
H     4.803000000     2.922000000     3.277000000
O     1.461000000     4.184000000    -5.669000000
H     1.233000000     4.194000000    -6.598000000
H     0.838000000     3.572000000    -5.276000000
O    -5.569000000    -1.902000000    -2.849000000
H    -5.515000000    -2.763000000    -2.435000000
H    -5.174000000    -2.025000000    -3.712000000
O    -5.183000000    -4.067000000    -1.430000000
H    -4.751000000    -3.532000000    -0.764000000
H    -4.851000000    -4.952000000    -1.278000000
O     4.034000000    -0.664000000    -5.374000000
H     3.934000000     0.276000000    -5.525000000
H     3.239000000    -0.917000000    -4.904000000
O    -0.406000000     2.469000000     7.622000000
H    -1.139000000     1.889000000     7.416000000
H    -0.066000000     2.141000000     8.454000000
O    -0.400000000     2.856000000    -1.918000000
H     0.070000000     2.392000000    -1.226000000
H    -1.244000000     3.078000000    -1.527000000
O     1.368000000    -3.233000000     0.388000000
H     0.608000000    -3.803000000     0.505000000
H     1.037000000    -2.495000000    -0.125000000
O    -7.780000000     1.587000000     0.604000000
H    -6.843000000     1.532000000     0.788000000
H    -7.842000000     1.526000000    -0.349000000
O    -6.142000000     0.577000000     5.499000000
H    -6.063000000     0.369000000     6.430000000
H    -5.316000000     1.007000000     5.278000000
O     4.895000000    -0.239000000     4.980000000
H     3.996000000    -0.423000000     4.706000000
H     4.931000000    -0.527000000     5.892000000
O     1.503000000    -2.287000000    -4.380000000
H     1.296000000    -1.863000000    -5.212000000
H     1.041000000    -3.124000000    -4.416000000
O     3.362000000    -1.869000000    -2.292000000
H     3.634000000    -2.762000000    -2.079000000
H     2.641000000    -1.979000000    -2.912000000
O    -1.775000000    -4.665000000    -2.057000000
H    -1.819000000    -4.159000000    -2.868000000
H    -0.889000000    -5.028000000    -2.049000000
O     2.153000000     0.018000000     4.539000000
H     1.308000000    -0.363000000     4.775000000
H     2.118000000     0.911000000     4.882000000
O    -4.897000000     1.041000000     0.913000000
H    -4.198000000     0.565000000     1.361000000
H    -4.970000000     1.866000000     1.392000000
O     4.884000000     3.518000000    -3.334000000
H     5.191000000     2.622000000    -3.474000000
H     4.200000000     3.436000000    -2.669000000
O    -0.149000000    -4.916000000    -4.866000000
H    -0.030000000    -5.314000000    -4.004000000
H    -0.804000000    -4.232000000    -4.726000000
O    -0.551000000    -0.922000000     5.139000000
H    -0.786000000    -0.372000000     4.391000000
H    -0.900000000    -0.454000000     5.899000000
O    -4.116000000    -2.758000000     1.178000000
H    -3.648000000    -1.996000000     1.518000000
H    -5.039000000    -2.509000000     1.215000000
O     2.459000000     3.052000000    -1.902000000
H     2.161000000     3.787000000    -1.366000000
H     1.682000000     2.783000000    -2.392000000
O    -2.107000000     1.385000000    -6.662000000
H    -1.559000000     1.379000000    -5.878000000
H    -2.571000000     2.222000000    -6.624000000
O     6.626000000    -1.446000000    -4.707000000
H     5.882000000    -0.889000000    -4.937000000
H     7.393000000    -0.957000000    -5.004000000
