158
-3020.24052
C    -1.269000000    -0.625000000    -0.252000000
H    -2.160000000    -1.233000000    -0.391000000
C    -0.254000000    -0.606000000    -1.167000000
H    -0.401000000    -1.179000000    -2.079000000
C     0.954000000     0.090000000    -0.857000000
H     1.743000000     0.092000000    -1.633000000
C     1.100000000     0.610000000     0.417000000
H     2.060000000     1.058000000     0.659000000
C    -0.006000000     0.534000000     1.385000000
H     0.205000000     0.854000000     2.402000000
C    -1.182000000     0.004000000     0.974000000
C    -2.295000000    -0.095000000     2.049000000
O    -2.128000000     0.288000000     3.184000000
O    -3.333000000    -0.662000000     1.776000000
O    -3.627000000     3.233000000     6.078000000
H    -4.163000000     3.662000000     6.745000000
H    -3.638000000     3.838000000     5.337000000
O     4.824000000    -0.903000000    -4.163000000
H     4.947000000    -0.895000000    -5.112000000
H     3.990000000    -1.354000000    -4.033000000
O    -1.678000000     3.494000000     0.102000000
H    -2.000000000     3.195000000     0.952000000
H    -0.727000000     3.399000000     0.159000000
O     4.712000000     1.444000000    -5.637000000
H     3.909000000     1.128000000    -6.052000000
H     4.791000000     0.921000000    -4.839000000
O    -7.144000000     0.285000000     3.072000000
H    -7.756000000     0.165000000     3.797000000
H    -6.636000000     1.060000000     3.313000000
O     2.353000000    -5.078000000     1.396000000
H     2.184000000    -4.213000000     1.021000000
H     3.071000000    -4.936000000     2.013000000
O     1.391000000     1.428000000     5.682000000
H     0.454000000     1.510000000     5.860000000
H     1.479000000     1.642000000     4.753000000
O    -4.725000000    -1.417000000    -2.108000000
H    -4.389000000    -1.905000000    -1.356000000
H    -4.913000000    -0.544000000    -1.763000000
O    -3.672000000    -0.535000000    -4.449000000
H    -4.410000000    -0.631000000    -5.051000000
H    -3.983000000    -0.915000000    -3.627000000
O    -1.481000000     4.298000000    -5.492000000
H    -1.386000000     3.506000000    -4.963000000
H    -2.375000000     4.594000000    -5.321000000
O    -1.607000000    -3.640000000     2.530000000
H    -1.609000000    -4.444000000     2.010000000
H    -2.484000000    -3.275000000     2.410000000
O     3.401000000     4.405000000     3.846000000
H     3.740000000     3.511000000     3.804000000
H     4.138000000     4.954000000     3.576000000
O    -4.641000000    -0.766000000     4.190000000
H    -3.854000000    -0.481000000     3.726000000
H    -5.357000000    -0.585000000     3.581000000
O    -5.950000000     2.538000000     4.384000000
H    -5.739000000     3.434000000     4.123000000
H    -6.678000000     2.634000000     4.998000000
O     6.475000000     3.759000000     2.609000000
H     7.033000000     4.272000000     2.025000000
H     6.111000000     3.072000000     2.049000000
O    -2.259000000     3.077000000     2.764000000
H    -1.545000000     3.531000000     3.212000000
H    -2.351000000     2.250000000     3.238000000
O    -0.828000000    -4.911000000    -1.063000000
H    -1.781000000    -4.875000000    -1.146000000
H    -0.674000000    -5.047000000    -0.128000000
O    -1.250000000     0.104000000    -5.397000000
H    -1.991000000    -0.069000000    -4.816000000
H    -1.191000000     1.059000000    -5.432000000
O    -1.600000000    -3.552000000    -4.948000000
H    -2.150000000    -4.151000000    -5.453000000
H    -2.191000000    -2.847000000    -4.686000000
O     4.705000000    -0.337000000    -1.351000000
H     4.295000000    -0.817000000    -2.071000000
H     4.344000000     0.547000000    -1.416000000
O     2.128000000     3.201000000    -3.431000000
H     1.197000000     2.982000000    -3.474000000
H     2.504000000     2.802000000    -4.215000000
O     2.983000000     4.407000000     0.671000000
H     2.318000000     5.045000000     0.930000000
H     3.791000000     4.725000000     1.075000000
O     5.222000000     1.523000000     1.148000000
H     4.610000000     1.185000000     1.802000000
H     5.078000000     0.973000000     0.378000000
O    -5.266000000     2.930000000    -0.969000000
H    -5.010000000     2.217000000    -0.382000000
H    -4.960000000     3.723000000    -0.529000000
O    -1.521000000     1.719000000     5.340000000
H    -2.255000000     2.315000000     5.489000000
H    -1.757000000     1.244000000     4.543000000
O    -7.222000000    -2.034000000     0.629000000
H    -7.434000000    -2.224000000    -0.285000000
H    -8.062000000    -2.078000000     1.085000000
O     0.370000000     4.598000000     3.548000000
H     0.452000000     5.071000000     2.720000000
H     1.272000000     4.412000000     3.808000000
O    -3.055000000    -4.059000000     6.052000000
H    -3.476000000    -3.627000000     5.309000000
H    -2.374000000    -4.604000000     5.657000000
O     3.854000000    -0.389000000     2.994000000
H     3.217000000    -0.826000000     3.560000000
H     4.685000000    -0.469000000     3.462000000
O     2.012000000     1.394000000    -6.154000000
H     1.572000000     2.022000000    -6.727000000
H     1.349000000     0.728000000    -5.974000000
O    -6.442000000    -3.247000000    -3.240000000
H    -6.189000000    -3.256000000    -4.163000000
H    -5.952000000    -2.516000000    -2.865000000
O    -3.545000000    -5.157000000    -1.770000000
H    -4.033000000    -4.337000000    -1.705000000
H    -3.884000000    -5.576000000    -2.561000000
O    -1.020000000     2.435000000    -3.672000000
H    -0.876000000     1.903000000    -2.890000000
H    -1.853000000     2.878000000    -3.510000000
O     2.215000000    -2.244000000     1.003000000
H     3.117000000    -1.936000000     0.922000000
H     1.681000000    -1.459000000     0.885000000
O    -4.705000000     0.367000000     6.795000000
H    -4.723000000    -0.130000000     5.977000000
H    -4.370000000     1.228000000     6.544000000
O     2.744000000    -2.391000000    -4.069000000
H     2.204000000    -2.136000000    -4.817000000
H     2.378000000    -3.227000000    -3.782000000
O     5.750000000    -2.524000000    -0.047000000
H     6.517000000    -2.165000000     0.398000000
H     5.423000000    -1.801000000    -0.582000000
O     1.661000000    -1.909000000     3.797000000
H     1.354000000    -2.234000000     2.950000000
H     0.867000000    -1.828000000     4.325000000
O     7.504000000    -1.537000000    -3.081000000
H     6.593000000    -1.419000000    -3.351000000
H     8.002000000    -1.509000000    -3.898000000
O    -5.298000000     0.299000000     0.281000000
H    -4.482000000     0.041000000     0.710000000
H    -5.913000000    -0.401000000     0.495000000
O     5.733000000     3.577000000    -3.376000000
H     5.647000000     2.835000000    -3.974000000
H     5.128000000     3.381000000    -2.661000000
O     0.672000000    -4.451000000    -3.720000000
H     0.155000000    -4.499000000    -2.917000000
H     0.097000000    -4.017000000    -4.350000000
O    -1.479000000    -1.191000000     5.206000000
H    -1.591000000    -0.740000000     4.369000000
H    -1.605000000    -0.509000000     5.865000000
O     0.115000000    -3.524000000     6.247000000
H    -0.208000000    -4.188000000     5.638000000
H    -0.405000000    -2.745000000     6.051000000
O    -4.277000000    -2.582000000     0.222000000
H    -3.810000000    -1.940000000     0.757000000
H    -4.922000000    -2.965000000     0.817000000
O     0.893000000    -1.517000000    -5.848000000
H    -0.026000000    -1.251000000    -5.862000000
H     1.079000000    -1.784000000    -6.748000000
O     3.930000000     2.295000000    -1.575000000
H     3.872000000     2.780000000    -0.752000000
H     3.338000000     2.758000000    -2.168000000
O     2.085000000     6.092000000    -3.945000000
H     1.770000000     5.345000000    -3.436000000
H     1.310000000     6.414000000    -4.404000000
