158
-3028.16668
C    -1.324000000    -0.694000000     0.383000000
H    -2.216000000    -1.267000000     0.620000000
C    -0.630000000    -0.848000000    -0.859000000
H    -1.118000000    -1.367000000    -1.680000000
C     0.612000000    -0.224000000    -1.068000000
H     1.050000000    -0.544000000    -1.984000000
C     1.132000000     0.718000000    -0.083000000
H     2.100000000     1.197000000    -0.204000000
C     0.360000000     0.951000000     1.052000000
H     0.666000000     1.638000000     1.837000000
C    -0.814000000     0.217000000     1.346000000
C    -1.571000000     0.332000000     2.592000000
O    -1.200000000     1.177000000     3.346000000
O    -2.553000000    -0.298000000     2.752000000
O    -4.723000000     3.160000000     5.346000000
H    -5.567000000     3.503000000     5.640000000
H    -4.210000000     3.939000000     5.131000000
O     1.455000000    -4.602000000    -6.132000000
H     0.651000000    -4.912000000    -6.550000000
H     1.376000000    -4.884000000    -5.221000000
O     3.974000000    -0.878000000    -1.935000000
H     4.347000000    -0.889000000    -2.816000000
H     3.208000000    -1.449000000    -1.992000000
O    -3.668000000     3.103000000    -2.455000000
H    -3.688000000     3.989000000    -2.816000000
H    -2.802000000     3.027000000    -2.055000000
O    -1.448000000     4.544000000     0.491000000
H    -1.255000000     4.088000000     1.310000000
H    -1.517000000     3.846000000    -0.161000000
O    -5.415000000     0.340000000     4.419000000
H    -6.250000000     0.793000000     4.532000000
H    -4.774000000     1.043000000     4.313000000
O     0.792000000     0.672000000     5.073000000
H     0.109000000     0.947000000     4.462000000
H     0.439000000    -0.113000000     5.490000000
O    -5.314000000    -1.969000000    -0.843000000
H    -4.677000000    -1.356000000    -1.210000000
H    -5.242000000    -1.851000000     0.105000000
O    -3.397000000     0.330000000    -2.646000000
H    -3.446000000     1.234000000    -2.336000000
H    -4.196000000     0.209000000    -3.159000000
O     0.697000000     2.445000000    -3.306000000
H     0.114000000     1.776000000    -3.666000000
H     0.109000000     3.083000000    -2.903000000
O    -3.600000000    -1.722000000     4.942000000
H    -3.185000000    -1.291000000     4.195000000
H    -4.485000000    -1.360000000     4.966000000
O    -0.823000000     3.921000000     3.379000000
H     0.044000000     3.956000000     3.783000000
H    -1.052000000     2.992000000     3.383000000
O    -2.732000000    -3.780000000    -0.434000000
H    -3.154000000    -3.943000000    -1.278000000
H    -3.385000000    -3.293000000     0.069000000
O    -0.865000000     0.276000000    -4.244000000
H    -1.623000000     0.242000000    -3.660000000
H    -0.729000000    -0.633000000    -4.512000000
O     0.372000000    -5.927000000    -3.972000000
H    -0.369000000    -6.442000000    -4.292000000
H     0.054000000    -5.529000000    -3.161000000
O    -2.109000000    -2.747000000    -3.959000000
H    -2.286000000    -3.255000000    -3.168000000
H    -2.733000000    -3.081000000    -4.603000000
O     5.890000000     0.486000000    -0.586000000
H     5.563000000    -0.299000000    -1.025000000
H     5.452000000     1.210000000    -1.033000000
O     2.916000000     1.717000000    -4.653000000
H     2.525000000     1.859000000    -3.791000000
H     2.424000000     2.293000000    -5.238000000
O     2.884000000     4.808000000     0.288000000
H     2.673000000     4.488000000     1.165000000
H     3.462000000     5.557000000     0.438000000
O     1.343000000    -4.462000000     0.841000000
H     1.342000000    -3.602000000     1.261000000
H     2.092000000    -4.437000000     0.246000000
O     5.661000000     1.241000000     2.585000000
H     4.940000000     1.397000000     3.194000000
H     5.237000000     0.926000000     1.787000000
O    -5.665000000     2.351000000    -0.308000000
H    -5.470000000     1.608000000     0.263000000
H    -5.990000000     3.029000000     0.285000000
O    -2.586000000     1.686000000     5.583000000
H    -3.350000000     2.207000000     5.338000000
H    -2.181000000     1.447000000     4.749000000
O    -6.623000000    -1.950000000     2.285000000
H    -7.345000000    -1.668000000     1.724000000
H    -6.911000000    -1.734000000     3.172000000
O     1.502000000     5.924000000    -1.581000000
H     1.919000000     5.164000000    -1.176000000
H     1.835000000     6.672000000    -1.084000000
O     1.828000000     5.096000000     4.688000000
H     2.068000000     5.788000000     4.072000000
H     2.656000000     4.664000000     4.897000000
O    -2.993000000    -4.431000000     5.419000000
H    -2.662000000    -4.924000000     4.668000000
H    -3.101000000    -3.538000000     5.091000000
O     3.490000000     1.317000000     3.838000000
H     3.595000000     0.398000000     4.086000000
H     2.566000000     1.505000000     4.002000000
O     1.113000000     1.198000000    -6.794000000
H     0.524000000     0.999000000    -7.521000000
H     0.936000000     0.514000000    -6.148000000
O    -5.872000000    -4.736000000    -0.145000000
H    -5.434000000    -4.678000000     0.704000000
H    -5.831000000    -3.847000000    -0.497000000
O     3.482000000    -2.012000000    -5.540000000
H     2.554000000    -2.241000000    -5.489000000
H     3.489000000    -1.109000000    -5.859000000
O    -1.141000000     2.166000000     7.816000000
H    -1.541000000     1.933000000     6.978000000
H    -1.800000000     1.931000000     8.469000000
O    -1.403000000     2.210000000    -1.098000000
H    -0.614000000     1.709000000    -1.303000000
H    -1.965000000     1.592000000    -0.630000000
O    -4.149000000    -4.710000000    -2.795000000
H    -3.987000000    -5.007000000    -3.691000000
H    -4.713000000    -5.384000000    -2.417000000
O     1.290000000    -2.005000000     1.829000000
H     1.248000000    -2.196000000     2.766000000
H     1.849000000    -1.230000000     1.767000000
O    -3.469000000    -0.335000000     7.199000000
H    -3.314000000    -1.084000000     6.624000000
H    -3.210000000     0.425000000     6.677000000
O    -1.785000000    -5.353000000     3.197000000
H    -1.142000000    -4.896000000     2.654000000
H    -2.318000000    -5.846000000     2.574000000
O    -3.157000000     5.175000000     4.680000000
H    -2.463000000     4.810000000     4.132000000
H    -3.504000000     5.908000000     4.171000000
O     2.242000000    -3.058000000    -2.083000000
H     1.383000000    -3.288000000    -1.729000000
H     2.684000000    -3.899000000    -2.205000000
O     4.715000000    -2.337000000     1.156000000
H     5.504000000    -2.170000000     1.673000000
H     4.790000000    -1.744000000     0.408000000
O    -4.850000000     0.644000000     1.685000000
H    -3.954000000     0.320000000     1.768000000
H    -5.330000000     0.207000000     2.388000000
O    -0.379000000    -4.607000000    -1.428000000
H    -1.128000000    -4.095000000    -1.121000000
H     0.139000000    -4.770000000    -0.639000000
O    -0.792000000    -1.706000000     5.886000000
H    -0.781000000    -2.545000000     6.346000000
H    -1.469000000    -1.808000000     5.217000000
O    -3.951000000    -2.893000000     1.893000000
H    -3.492000000    -2.103000000     2.176000000
H    -4.805000000    -2.842000000     2.323000000
O     0.064000000    -2.158000000    -5.519000000
H    -0.558000000    -2.403000000    -4.834000000
H     0.477000000    -2.982000000    -5.774000000
O    -2.378000000    -1.104000000    -6.774000000
H    -1.674000000    -0.456000000    -6.750000000
H    -2.268000000    -1.608000000    -5.968000000
O     5.112000000     2.500000000    -2.857000000
H     5.213000000     3.208000000    -2.221000000
H     4.453000000     2.823000000    -3.472000000
O    -1.741000000    -6.354000000     0.345000000
H    -1.802000000    -5.528000000    -0.134000000
H    -1.955000000    -7.024000000    -0.305000000
