158
-3056.05640
C    -1.302000000    -0.691000000     0.058000000
H    -2.182000000    -1.324000000    -0.017000000
C    -0.523000000    -0.554000000    -1.066000000
H    -0.813000000    -1.080000000    -1.972000000
C     0.623000000     0.234000000    -1.053000000
H     1.069000000     0.440000000    -2.018000000
C     1.044000000     0.803000000     0.188000000
H     1.952000000     1.397000000     0.260000000
C     0.305000000     0.548000000     1.330000000
H     0.606000000     0.985000000     2.278000000
C    -0.881000000    -0.184000000     1.302000000
C    -1.723000000    -0.363000000     2.494000000
O    -1.285000000     0.097000000     3.543000000
O    -2.759000000    -1.008000000     2.438000000
O    -4.988000000     2.182000000     3.672000000
H    -5.469000000     2.863000000     4.142000000
H    -4.847000000     2.548000000     2.799000000
O     2.856000000    -1.867000000    -2.008000000
H     2.171000000    -1.964000000    -2.669000000
H     2.478000000    -2.243000000    -1.213000000
O    -4.480000000     2.494000000    -0.659000000
H    -3.777000000     2.340000000    -1.290000000
H    -4.136000000     3.171000000    -0.077000000
O     2.759000000    -2.491000000     1.567000000
H     2.113000000    -2.861000000     0.965000000
H     2.988000000    -3.216000000     2.148000000
O    -7.172000000     1.117000000     1.866000000
H    -7.100000000     2.001000000     1.508000000
H    -6.721000000     1.162000000     2.709000000
O    -6.380000000    -1.707000000     5.186000000
H    -7.303000000    -1.455000000     5.208000000
H    -6.083000000    -1.607000000     6.090000000
O     6.000000000     0.035000000     2.527000000
H     6.027000000     0.612000000     1.764000000
H     5.067000000    -0.071000000     2.714000000
O    -0.302000000    -2.050000000     5.240000000
H    -0.589000000    -1.152000000     5.076000000
H    -0.605000000    -2.542000000     4.477000000
O    -3.606000000     0.578000000    -3.960000000
H    -3.008000000     0.992000000    -3.339000000
H    -3.042000000     0.032000000    -4.508000000
O     3.106000000     2.600000000     2.303000000
H     3.155000000     1.648000000     2.393000000
H     3.097000000     2.751000000     1.358000000
O     5.563000000    -2.168000000    -2.392000000
H     4.773000000    -2.549000000    -2.775000000
H     5.323000000    -1.261000000    -2.202000000
O    -4.136000000    -2.448000000     3.995000000
H    -3.569000000    -1.829000000     3.536000000
H    -4.988000000    -2.013000000     4.029000000
O    -1.288000000     3.176000000     2.442000000
H    -0.566000000     3.593000000     2.913000000
H    -1.526000000     2.424000000     2.985000000
O    -3.402000000    -5.469000000     0.311000000
H    -4.071000000    -5.538000000    -0.370000000
H    -3.422000000    -4.549000000     0.574000000
O    -2.067000000    -0.692000000    -5.890000000
H    -2.814000000    -0.858000000    -6.465000000
H    -1.372000000    -1.254000000    -6.231000000
O     4.130000000     0.525000000    -1.932000000
H     3.649000000    -0.299000000    -2.011000000
H     3.654000000     1.136000000    -2.495000000
O     4.136000000     4.212000000     0.303000000
H     3.385000000     4.538000000    -0.192000000
H     4.334000000     4.911000000     0.927000000
O     2.643000000     5.575000000    -1.601000000
H     1.776000000     5.637000000    -1.199000000
H     2.479000000     5.204000000    -2.468000000
O     0.214000000    -5.407000000    -1.169000000
H     0.400000000    -4.701000000    -0.550000000
H     1.075000000    -5.688000000    -1.478000000
O     5.046000000     1.651000000     0.411000000
H     4.835000000     1.190000000    -0.401000000
H     4.705000000     2.536000000     0.280000000
O    -5.656000000    -0.506000000     0.025000000
H    -6.079000000    -0.154000000     0.808000000
H    -5.017000000     0.162000000    -0.223000000
O    -2.918000000    -4.077000000    -6.003000000
H    -2.822000000    -3.808000000    -5.089000000
H    -3.810000000    -4.421000000    -6.058000000
O    -2.541000000     1.707000000     5.037000000
H    -3.359000000     1.790000000     4.546000000
H    -2.035000000     1.056000000     4.550000000
O    -1.041000000     4.706000000    -1.837000000
H    -0.500000000     5.225000000    -1.242000000
H    -1.898000000     5.130000000    -1.812000000
O     1.211000000     4.332000000     3.369000000
H     1.637000000     5.160000000     3.148000000
H     1.916000000     3.685000000     3.337000000
O    -3.938000000    -5.115000000     3.481000000
H    -4.090000000    -5.017000000     2.541000000
H    -4.254000000    -4.295000000     3.861000000
O     3.037000000    -0.016000000     2.821000000
H     2.892000000    -0.468000000     3.652000000
H     2.682000000    -0.611000000     2.160000000
O     2.467000000    -1.524000000     5.263000000
H     1.514000000    -1.599000000     5.219000000
H     2.624000000    -0.849000000     5.924000000
O     3.073000000     0.492000000    -7.856000000
H     2.451000000     0.135000000    -7.222000000
H     2.883000000     0.022000000    -8.668000000
O    -1.395000000     1.635000000     7.531000000
H    -1.721000000     1.498000000     6.641000000
H    -2.186000000     1.719000000     8.064000000
O    -2.052000000     1.851000000    -1.905000000
H    -1.532000000     1.427000000    -1.222000000
H    -1.594000000     2.673000000    -2.079000000
O    -4.356000000    -4.364000000    -2.776000000
H    -4.563000000    -3.570000000    -3.268000000
H    -5.169000000    -4.583000000    -2.321000000
O     0.055000000    -3.264000000     0.764000000
H    -0.318000000    -3.378000000     1.638000000
H    -0.427000000    -2.525000000     0.392000000
O     3.118000000     3.114000000     5.522000000
H     2.827000000     2.655000000     4.734000000
H     2.308000000     3.353000000     5.973000000
O    -2.727000000    -2.404000000     6.556000000
H    -3.194000000    -2.465000000     5.722000000
H    -1.802000000    -2.375000000     6.311000000
O    -3.909000000     4.044000000     1.690000000
H    -3.088000000     3.595000000     1.490000000
H    -3.639000000     4.902000000     2.020000000
O     0.488000000    -2.462000000    -3.756000000
H     0.690000000    -3.289000000    -4.193000000
H    -0.299000000    -2.647000000    -3.244000000
O     4.121000000    -3.835000000    -4.364000000
H     4.775000000    -4.523000000    -4.491000000
H     4.389000000    -3.137000000    -4.963000000
O    -7.068000000    -2.668000000     2.524000000
H    -6.919000000    -2.604000000     3.468000000
H    -7.996000000    -2.461000000     2.413000000
O    -2.832000000     4.506000000     5.909000000
H    -2.635000000     3.571000000     5.841000000
H    -3.738000000     4.538000000     6.217000000
O     1.014000000     4.323000000    -3.917000000
H     0.207000000     4.484000000    -3.428000000
H     1.006000000     4.979000000    -4.614000000
O    -1.554000000    -4.842000000    -3.446000000
H    -2.472000000    -4.745000000    -3.194000000
H    -1.140000000    -5.256000000    -2.689000000
O    -1.486000000    -3.434000000     3.159000000
H    -2.117000000    -4.077000000     3.482000000
H    -2.005000000    -2.643000000     3.011000000
O    -3.980000000    -2.797000000     0.867000000
H    -3.575000000    -2.230000000     1.523000000
H    -4.853000000    -2.427000000     0.737000000
O     0.883000000     0.028000000    -5.087000000
H     0.742000000    -0.892000000    -4.865000000
H     0.013000000     0.354000000    -5.319000000
O     4.573000000     2.040000000    -6.026000000
H     4.118000000     2.141000000    -5.190000000
H     3.880000000     1.832000000    -6.652000000
O     2.529000000     1.949000000    -3.871000000
H     2.090000000     2.794000000    -3.775000000
H     1.850000000     1.362000000    -4.202000000
O     5.417000000     3.762000000     3.220000000
H     5.973000000     2.983000000     3.198000000
H     4.544000000     3.438000000     2.998000000
