158
-3015.46698
C    -0.969000000    -1.127000000     0.021000000
H    -1.622000000    -1.982000000    -0.137000000
C    -0.105000000    -0.791000000    -1.040000000
H    -0.147000000    -1.376000000    -1.954000000
C     0.749000000     0.346000000    -0.892000000
H     1.333000000     0.704000000    -1.732000000
C     0.775000000     1.058000000     0.272000000
H     1.487000000     1.876000000     0.347000000
C     0.018000000     0.617000000     1.349000000
H    -0.005000000     1.163000000     2.289000000
C    -0.889000000    -0.431000000     1.196000000
C    -1.857000000    -0.856000000     2.281000000
O    -1.764000000    -0.328000000     3.379000000
O    -2.586000000    -1.811000000     2.158000000
O    -2.616000000    -0.642000000     7.907000000
H    -2.386000000    -0.322000000     8.779000000
H    -2.610000000    -1.595000000     7.992000000
O    -1.413000000     2.358000000    -3.546000000
H    -1.065000000     1.537000000    -3.896000000
H    -2.336000000     2.173000000    -3.375000000
O    -4.895000000     3.365000000     2.916000000
H    -4.898000000     2.713000000     3.616000000
H    -4.783000000     4.201000000     3.367000000
O     1.273000000    -1.550000000    -6.588000000
H     1.088000000    -2.364000000    -7.057000000
H     1.444000000    -1.827000000    -5.687000000
O    -4.573000000     0.776000000     6.442000000
H    -4.992000000     1.226000000     7.175000000
H    -3.953000000     0.174000000     6.853000000
O     4.757000000     4.543000000     3.431000000
H     4.481000000     3.770000000     2.939000000
H     4.319000000     5.274000000     2.994000000
O    -5.082000000    -3.269000000     5.721000000
H    -5.086000000    -3.792000000     4.919000000
H    -5.024000000    -2.363000000     5.415000000
O    -4.661000000     1.139000000    -2.597000000
H    -5.056000000     0.307000000    -2.338000000
H    -4.263000000     1.475000000    -1.794000000
O     0.082000000     4.592000000     1.861000000
H    -0.655000000     4.023000000     2.081000000
H     0.101000000     4.600000000     0.904000000
O    -1.741000000    -3.833000000    -2.592000000
H    -2.394000000    -3.562000000    -1.947000000
H    -1.719000000    -3.116000000    -3.226000000
O     4.261000000     2.338000000     2.014000000
H     4.498000000     1.698000000     2.685000000
H     3.997000000     1.808000000     1.261000000
O    -4.531000000    -0.948000000     4.340000000
H    -3.845000000    -0.908000000     3.674000000
H    -4.318000000    -0.238000000     4.946000000
O    -2.589000000     1.805000000     4.707000000
H    -3.329000000     1.489000000     5.225000000
H    -2.246000000     1.022000000     4.277000000
O    -1.318000000    -5.010000000     0.475000000
H    -2.238000000    -4.784000000     0.615000000
H    -0.898000000    -4.834000000     1.317000000
O     2.764000000     5.884000000    -2.093000000
H     2.891000000     5.983000000    -3.036000000
H     2.276000000     6.665000000    -1.833000000
O    -0.633000000     0.021000000    -4.654000000
H    -1.275000000    -0.688000000    -4.623000000
H     0.211000000    -0.424000000    -4.730000000
O    -2.407000000    -1.954000000    -4.648000000
H    -2.597000000    -2.624000000    -5.304000000
H    -3.205000000    -1.427000000    -4.605000000
O     4.980000000     0.988000000    -1.535000000
H     5.699000000     1.509000000    -1.177000000
H     4.268000000     1.615000000    -1.659000000
O     0.848000000    -3.074000000     7.035000000
H     0.214000000    -2.515000000     6.585000000
H     1.426000000    -3.388000000     6.339000000
O    -2.454000000     3.246000000     7.028000000
H    -3.297000000     3.047000000     7.435000000
H    -2.324000000     2.544000000     6.389000000
O     2.687000000     5.772000000     2.082000000
H     1.867000000     5.279000000     2.104000000
H     2.416000000     6.688000000     2.038000000
O    -1.498000000     5.191000000     4.931000000
H    -1.474000000     4.437000000     5.521000000
H    -1.972000000     4.877000000     4.161000000
O     3.562000000    -1.495000000    -1.017000000
H     2.639000000    -1.250000000    -0.958000000
H     4.019000000    -0.671000000    -1.183000000
O     4.891000000     5.609000000    -0.200000000
H     4.392000000     5.260000000     0.539000000
H     4.228000000     5.824000000    -0.856000000
O    -6.782000000    -2.004000000     0.320000000
H    -7.331000000    -2.738000000     0.596000000
H    -7.335000000    -1.232000000     0.444000000
O     1.611000000    -0.694000000     4.309000000
H     0.783000000    -0.897000000     4.744000000
H     1.875000000    -1.518000000     3.900000000
O    -0.359000000     4.574000000    -2.388000000
H     0.580000000     4.683000000    -2.537000000
H    -0.581000000     3.761000000    -2.841000000
O    -2.204000000     3.386000000     1.828000000
H    -3.058000000     3.275000000     2.245000000
H    -2.310000000     3.002000000     0.958000000
O    -5.770000000    -4.987000000     3.535000000
H    -5.369000000    -5.162000000     2.684000000
H    -5.990000000    -5.853000000     3.879000000
O     3.014000000     1.712000000     5.306000000
H     2.539000000     0.982000000     4.909000000
H     3.935000000     1.524000000     5.129000000
O    -0.492000000     1.900000000    -6.576000000
H    -0.140000000     2.690000000    -6.167000000
H    -0.796000000     1.366000000    -5.842000000
O    -2.254000000     1.881000000    -0.804000000
H    -1.775000000     2.267000000    -1.538000000
H    -1.578000000     1.464000000    -0.270000000
O     1.124000000    -6.673000000     0.495000000
H     0.347000000    -6.122000000     0.405000000
H     1.676000000    -6.209000000     1.124000000
O    -0.694000000    -1.030000000     5.639000000
H    -1.130000000    -0.963000000     4.790000000
H    -1.252000000    -0.530000000     6.235000000
O    -2.255000000    -6.949000000    -1.040000000
H    -1.981000000    -6.749000000    -1.935000000
H    -1.939000000    -6.209000000    -0.522000000
O     4.836000000    -3.921000000    -2.675000000
H     4.599000000    -3.123000000    -2.202000000
H     5.793000000    -3.907000000    -2.704000000
O     5.111000000    -3.370000000     0.671000000
H     5.343000000    -3.983000000    -0.028000000
H     4.437000000    -2.811000000     0.285000000
O    -1.164000000    -6.409000000    -3.485000000
H    -1.100000000    -5.470000000    -3.307000000
H    -0.314000000    -6.639000000    -3.861000000
O     1.237000000    -3.339000000     3.642000000
H     1.729000000    -3.753000000     2.933000000
H     0.320000000    -3.516000000     3.433000000
O     6.619000000    -1.801000000    -4.508000000
H     6.188000000    -0.983000000    -4.755000000
H     6.300000000    -2.441000000    -5.144000000
O    -6.684000000    -1.929000000     3.177000000
H    -5.980000000    -1.581000000     3.724000000
H    -6.364000000    -1.827000000     2.280000000
O    -1.436000000    -4.052000000     3.333000000
H    -1.939000000    -4.524000000     3.998000000
H    -1.835000000    -3.183000000     3.303000000
O    -4.263000000    -3.692000000     1.141000000
H    -3.729000000    -3.049000000     1.607000000
H    -4.802000000    -3.170000000     0.547000000
O     1.714000000    -1.540000000    -3.670000000
H     1.674000000    -2.468000000    -3.438000000
H     2.447000000    -1.197000000    -3.158000000
O     5.713000000     0.813000000    -4.327000000
H     5.571000000     0.741000000    -3.383000000
H     4.835000000     0.913000000    -4.694000000
O     3.202000000     3.012000000    -2.154000000
H     3.017000000     3.808000000    -1.656000000
H     2.872000000     3.197000000    -3.033000000
O     1.940000000     4.293000000    -4.333000000
H     1.219000000     4.181000000    -4.952000000
H     2.463000000     5.006000000    -4.701000000
O     3.234000000     0.619000000    -5.283000000
H     3.065000000    -0.303000000    -5.476000000
H     2.955000000     1.084000000    -6.072000000
