158
-3022.09370
C    -0.882000000    -1.186000000     0.134000000
H    -1.490000000    -2.077000000     0.272000000
C     0.165000000    -1.087000000    -0.806000000
H     0.176000000    -1.920000000    -1.504000000
C     0.963000000     0.067000000    -0.835000000
H     1.809000000     0.144000000    -1.551000000
C     0.712000000     1.095000000     0.068000000
H     1.295000000     2.012000000     0.081000000
C    -0.423000000     1.060000000     0.861000000
H    -0.570000000     1.874000000     1.566000000
C    -1.220000000    -0.089000000     0.929000000
C    -2.323000000    -0.185000000     2.013000000
O    -2.584000000     0.747000000     2.734000000
O    -2.846000000    -1.276000000     2.211000000
O    -3.480000000    -1.015000000     7.712000000
H    -4.401000000    -0.809000000     7.870000000
H    -3.336000000    -0.783000000     6.794000000
O    -1.309000000     3.763000000    -3.871000000
H    -1.169000000     2.817000000    -3.917000000
H    -0.913000000     4.102000000    -4.673000000
O     4.583000000    -1.282000000     2.169000000
H     4.670000000    -0.638000000     2.872000000
H     5.145000000    -2.008000000     2.438000000
O    -4.807000000     2.128000000     2.056000000
H    -3.870000000     1.940000000     2.121000000
H    -5.213000000     1.544000000     2.698000000
O     1.783000000    -1.598000000    -6.509000000
H     0.914000000    -1.970000000    -6.661000000
H     1.878000000    -1.594000000    -5.557000000
O    -6.684000000     0.085000000     3.979000000
H    -6.694000000     0.915000000     4.455000000
H    -6.837000000    -0.579000000     4.652000000
O     4.264000000     3.436000000     3.816000000
H     4.128000000     4.044000000     3.089000000
H     3.436000000     2.961000000     3.890000000
O    -4.233000000    -2.967000000     3.848000000
H    -3.446000000    -3.309000000     4.273000000
H    -3.908000000    -2.518000000     3.068000000
O    -2.289000000     5.683000000     0.477000000
H    -2.784000000     5.571000000     1.289000000
H    -2.138000000     4.791000000     0.164000000
O    -3.253000000    -2.461000000    -2.321000000
H    -3.924000000    -2.861000000    -2.875000000
H    -3.249000000    -2.995000000    -1.526000000
O     6.203000000     0.295000000     0.448000000
H     5.363000000    -0.002000000     0.799000000
H     6.348000000     1.145000000     0.862000000
O    -3.905000000    -0.269000000     5.214000000
H    -3.857000000     0.442000000     4.575000000
H    -3.424000000    -0.990000000     4.807000000
O    -6.324000000     2.738000000     4.922000000
H    -5.420000000     2.880000000     5.204000000
H    -6.836000000     2.778000000     5.730000000
O    -1.243000000     1.674000000     4.725000000
H    -1.664000000     1.311000000     3.945000000
H    -0.317000000     1.456000000     4.621000000
O     0.925000000    -4.328000000     1.145000000
H     1.023000000    -3.378000000     1.211000000
H     0.394000000    -4.568000000     1.904000000
O     0.504000000     0.557000000    -5.137000000
H    -0.340000000     0.342000000    -4.739000000
H     1.076000000    -0.171000000    -4.892000000
O    -1.867000000    -0.072000000    -4.065000000
H    -2.055000000    -0.998000000    -4.221000000
H    -2.356000000     0.141000000    -3.270000000
O     5.185000000     1.117000000    -2.209000000
H     5.857000000     0.917000000    -1.557000000
H     4.478000000     1.523000000    -1.708000000
O    -1.754000000     3.024000000     7.235000000
H    -2.557000000     3.425000000     6.901000000
H    -1.566000000     2.317000000     6.618000000
O    -1.207000000     4.500000000     4.141000000
H    -1.367000000     3.628000000     4.503000000
H    -1.991000000     4.693000000     3.626000000
O     3.866000000    -1.909000000    -1.186000000
H     4.401000000    -1.999000000    -0.398000000
H     4.334000000    -1.267000000    -1.720000000
O     4.221000000     4.901000000     1.222000000
H     5.043000000     5.239000000     0.867000000
H     3.542000000     5.310000000     0.685000000
O    -5.529000000    -1.246000000    -0.155000000
H    -4.797000000    -0.785000000     0.254000000
H    -5.624000000    -0.832000000    -1.013000000
O    -1.572000000     3.286000000    -0.814000000
H    -0.958000000     2.627000000    -0.489000000
H    -1.426000000     3.303000000    -1.760000000
O    -4.370000000     2.972000000    -0.330000000
H    -4.387000000     2.641000000     0.568000000
H    -3.439000000     3.080000000    -0.528000000
O    -2.181000000    -5.416000000     1.416000000
H    -1.429000000    -4.924000000     1.746000000
H    -2.681000000    -4.777000000     0.908000000
O     2.251000000    -4.293000000    -4.164000000
H     2.368000000    -4.840000000    -4.941000000
H     2.852000000    -4.664000000    -3.518000000
O     0.991000000    -0.367000000     3.999000000
H     1.494000000    -0.682000000     3.248000000
H     1.429000000     0.444000000     4.257000000
O     1.603000000     2.839000000    -6.171000000
H     1.051000000     3.619000000    -6.230000000
H     1.006000000     2.145000000    -5.889000000
O    -3.392000000     0.165000000    -1.701000000
H    -3.401000000    -0.791000000    -1.665000000
H    -4.195000000     0.395000000    -2.167000000
O     3.820000000    -4.884000000     0.570000000
H     2.931000000    -4.531000000     0.555000000
H     3.731000000    -5.739000000     0.991000000
O     1.354000000     2.954000000     4.248000000
H     1.565000000     3.298000000     5.116000000
H     0.738000000     3.589000000     3.882000000
O    -0.859000000    -1.035000000     5.997000000
H    -0.162000000    -0.833000000     5.372000000
H    -1.366000000    -0.226000000     6.060000000
O     0.093000000    -5.808000000    -1.179000000
H    -0.360000000    -5.152000000    -1.709000000
H     0.341000000    -5.342000000    -0.381000000
O    -0.365000000    -4.805000000    -4.299000000
H    -0.767000000    -4.293000000    -5.001000000
H     0.494000000    -4.402000000    -4.169000000
O     2.030000000    -1.483000000     1.628000000
H     1.886000000    -1.236000000     0.714000000
H     2.979000000    -1.432000000     1.742000000
O    -7.232000000    -1.626000000     1.939000000
H    -6.808000000    -1.495000000     1.091000000
H    -6.600000000    -1.293000000     2.576000000
O     2.214000000     6.309000000     0.003000000
H     1.314000000     6.499000000    -0.260000000
H     2.468000000     7.056000000     0.546000000
O    -1.098000000    -3.498000000     2.772000000
H    -1.189000000    -3.807000000     3.673000000
H    -1.382000000    -2.585000000     2.802000000
O    -6.243000000     4.686000000     1.475000000
H    -6.432000000     5.011000000     2.355000000
H    -5.675000000     3.929000000     1.617000000
O    -3.582000000    -3.408000000     0.398000000
H    -3.333000000    -2.616000000     0.875000000
H    -4.397000000    -3.692000000     0.812000000
O     2.064000000    -1.641000000    -3.805000000
H     1.986000000    -2.585000000    -3.943000000
H     2.641000000    -1.556000000    -3.046000000
O     6.117000000     2.815000000    -4.229000000
H     5.821000000     2.374000000    -3.432000000
H     5.312000000     3.003000000    -4.711000000
O     3.304000000     3.508000000    -1.949000000
H     2.971000000     4.123000000    -1.296000000
H     2.695000000     3.586000000    -2.684000000
O    -5.698000000    -5.283000000     3.484000000
H    -6.487000000    -5.194000000     2.950000000
H    -5.345000000    -4.395000000     3.539000000
O     1.412000000     4.726000000    -3.672000000
H     0.701000000     5.358000000    -3.568000000
H     2.172000000     5.258000000    -3.908000000
O    -1.769000000    -3.613000000     5.338000000
H    -1.388000000    -4.096000000     6.071000000
H    -1.572000000    -2.696000000     5.526000000
O     4.386000000     3.905000000    -5.982000000
H     3.503000000     3.570000000    -5.827000000
H     4.448000000     4.682000000    -5.426000000
