158
-3044.29351
C    -1.024000000    -1.142000000     0.038000000
H    -1.841000000    -1.856000000    -0.018000000
C    -0.100000000    -0.921000000    -0.983000000
H    -0.134000000    -1.509000000    -1.897000000
C     0.863000000     0.124000000    -0.884000000
H     1.567000000     0.335000000    -1.660000000
C     0.872000000     0.971000000     0.218000000
H     1.565000000     1.806000000     0.264000000
C    -0.042000000     0.711000000     1.300000000
H    -0.023000000     1.302000000     2.212000000
C    -0.969000000    -0.312000000     1.165000000
C    -2.047000000    -0.469000000     2.181000000
O    -2.216000000     0.435000000     2.951000000
O    -2.760000000    -1.425000000     2.273000000
O    -1.289000000     2.632000000     6.881000000
H    -0.637000000     3.147000000     7.356000000
H    -2.126000000     2.892000000     7.267000000
O     3.075000000     3.238000000     3.157000000
H     2.483000000     2.590000000     3.540000000
H     3.374000000     3.759000000     3.903000000
O    -2.013000000     3.129000000     2.339000000
H    -2.072000000     2.194000000     2.535000000
H    -2.720000000     3.287000000     1.713000000
O    -3.929000000    -5.342000000     5.119000000
H    -3.391000000    -4.583000000     4.895000000
H    -4.157000000    -5.731000000     4.274000000
O     3.642000000     2.853000000    -3.736000000
H     4.093000000     2.233000000    -3.163000000
H     4.174000000     3.648000000    -3.696000000
O     2.106000000     3.930000000    -6.246000000
H     1.713000000     4.774000000    -6.021000000
H     2.606000000     3.683000000    -5.469000000
O    -1.940000000    -1.408000000    -5.035000000
H    -1.945000000    -2.255000000    -5.482000000
H    -1.016000000    -1.164000000    -4.994000000
O    -4.773000000     0.060000000     4.223000000
H    -4.703000000    -0.346000000     5.087000000
H    -3.879000000     0.050000000     3.881000000
O     2.943000000    -3.819000000    -4.494000000
H     3.028000000    -4.535000000    -3.863000000
H     3.212000000    -4.203000000    -5.328000000
O     4.330000000    -2.670000000    -1.588000000
H     3.900000000    -3.124000000    -0.862000000
H     4.832000000    -3.353000000    -2.033000000
O    -6.672000000    -2.465000000     4.679000000
H    -6.577000000    -1.528000000     4.850000000
H    -5.790000000    -2.820000000     4.793000000
O    -4.248000000     2.590000000    -0.909000000
H    -3.297000000     2.691000000    -0.945000000
H    -4.453000000     1.996000000    -1.632000000
O    -2.475000000    -3.074000000     4.481000000
H    -1.592000000    -2.708000000     4.538000000
H    -2.918000000    -2.530000000     3.829000000
O     0.704000000    -0.157000000    -4.984000000
H     1.503000000    -0.352000000    -4.494000000
H     0.553000000     0.776000000    -4.836000000
O    -0.183000000     4.965000000     0.644000000
H    -0.657000000     4.232000000     1.035000000
H    -0.865000000     5.597000000     0.416000000
O    -0.318000000    -6.758000000    -2.997000000
H    -1.105000000    -7.303000000    -2.996000000
H    -0.650000000    -5.860000000    -2.990000000
O    -4.542000000    -1.939000000     6.483000000
H    -4.944000000    -1.682000000     7.313000000
H    -3.867000000    -2.571000000     6.730000000
O    -4.332000000     3.999000000     1.400000000
H    -4.473000000     3.413000000     0.657000000
H    -5.138000000     3.935000000     1.913000000
O    -0.695000000     0.444000000     5.266000000
H    -0.996000000     1.011000000     5.975000000
H    -1.400000000     0.474000000     4.619000000
O     3.158000000    -1.138000000    -3.706000000
H     3.196000000    -1.894000000    -4.291000000
H     3.478000000    -1.468000000    -2.866000000
O     0.209000000    -3.617000000    -3.623000000
H     1.120000000    -3.491000000    -3.890000000
H    -0.260000000    -3.776000000    -4.442000000
O     4.578000000     0.602000000     0.259000000
H     4.425000000     1.526000000     0.059000000
H     5.397000000     0.392000000    -0.191000000
O     1.959000000     0.469000000     4.350000000
H     1.043000000     0.387000000     4.616000000
H     2.417000000    -0.199000000     4.860000000
O    -3.645000000     4.617000000     4.413000000
H    -3.654000000     4.472000000     3.467000000
H    -4.353000000     4.066000000     4.747000000
O     1.338000000     5.751000000     4.765000000
H     0.991000000     4.893000000     4.518000000
H     1.044000000     6.338000000     4.068000000
O     0.008000000     3.485000000     4.223000000
H    -0.158000000     2.721000000     4.775000000
H    -0.540000000     3.346000000     3.451000000
O    -4.857000000    -3.589000000    -1.516000000
H    -5.694000000    -3.124000000    -1.535000000
H    -4.333000000    -3.167000000    -2.197000000
O    -5.975000000     2.824000000     4.855000000
H    -6.931000000     2.783000000     4.841000000
H    -5.693000000     1.952000000     4.577000000
O    -1.580000000    -2.560000000     7.231000000
H    -1.121000000    -1.844000000     7.670000000
H    -1.748000000    -2.232000000     6.348000000
O    -6.530000000     0.073000000     2.049000000
H    -5.985000000     0.283000000     2.807000000
H    -6.105000000    -0.687000000     1.651000000
O    -1.620000000    -6.694000000    -0.071000000
H    -1.319000000    -5.955000000    -0.599000000
H    -2.571000000    -6.693000000    -0.177000000
O     3.188000000    -1.279000000     1.881000000
H     2.777000000    -0.653000000     2.477000000
H     3.497000000    -0.745000000     1.149000000
O     0.953000000     6.719000000     2.351000000
H     0.728000000     7.368000000     1.684000000
H     0.782000000     5.875000000     1.932000000
O     1.136000000    -1.698000000    -7.372000000
H     0.374000000    -2.187000000    -7.680000000
H     0.831000000    -1.252000000    -6.581000000
O    -1.541000000     2.799000000    -1.121000000
H    -1.459000000     3.066000000    -2.036000000
H    -0.672000000     2.469000000    -0.889000000
O    -7.270000000    -3.763000000     2.121000000
H    -7.057000000    -3.527000000     3.023000000
H    -6.713000000    -3.197000000     1.587000000
O     4.014000000     3.190000000     0.509000000
H     3.817000000     4.062000000     0.167000000
H     3.723000000     3.219000000     1.421000000
O    -0.119000000     2.668000000    -3.887000000
H     0.776000000     2.906000000    -3.647000000
H    -0.355000000     3.290000000    -4.577000000
O    -0.656000000    -4.308000000    -1.141000000
H    -0.398000000    -4.268000000    -2.062000000
H    -0.480000000    -3.430000000    -0.804000000
O     5.855000000    -0.697000000    -4.525000000
H     6.229000000     0.052000000    -4.060000000
H     4.933000000    -0.701000000    -4.270000000
O     0.488000000     6.463000000    -1.668000000
H     0.634000000     5.683000000    -1.133000000
H     0.387000000     7.173000000    -1.034000000
O     2.359000000    -3.691000000     0.771000000
H     1.415000000    -3.612000000     0.906000000
H     2.715000000    -2.852000000     1.062000000
O    -5.233000000    -1.950000000     1.109000000
H    -4.925000000    -2.508000000     0.395000000
H    -4.450000000    -1.774000000     1.630000000
O    -0.331000000    -3.426000000     2.203000000
H    -0.146000000    -3.005000000     3.042000000
H    -1.259000000    -3.255000000     2.048000000
O    -4.255000000    -6.350000000    -1.194000000
H    -4.414000000    -5.407000000    -1.169000000
H    -4.981000000    -6.729000000    -0.699000000
O     6.753000000    -0.729000000    -1.116000000
H     7.393000000    -0.926000000    -0.432000000
H     6.117000000    -1.442000000    -1.062000000
O    -3.824000000    -1.285000000    -2.843000000
H    -4.010000000    -0.349000000    -2.772000000
H    -3.009000000    -1.330000000    -3.343000000
O     0.077000000    -2.136000000     4.526000000
H     0.993000000    -2.192000000     4.797000000
H    -0.214000000    -1.279000000     4.838000000
