158
-3044.85243
C    -1.150000000    -0.906000000    -0.132000000
H    -2.030000000    -1.488000000    -0.394000000
C     0.005000000    -1.019000000    -0.963000000
H     0.088000000    -1.760000000    -1.753000000
C     1.059000000    -0.172000000    -0.656000000
H     2.021000000    -0.301000000    -1.204000000
C     0.981000000     0.749000000     0.434000000
H     1.821000000     1.422000000     0.583000000
C    -0.206000000     0.887000000     1.145000000
H    -0.406000000     1.628000000     1.915000000
C    -1.326000000     0.148000000     0.836000000
C    -2.607000000     0.330000000     1.630000000
O    -2.503000000     0.831000000     2.701000000
O    -3.690000000    -0.191000000     1.330000000
O    -2.177000000     1.455000000     6.217000000
H    -1.632000000     2.062000000     6.717000000
H    -2.862000000     2.005000000     5.838000000
O     3.585000000     4.263000000     3.599000000
H     3.355000000     3.343000000     3.468000000
H     2.743000000     4.708000000     3.698000000
O    -4.267000000     2.394000000     3.733000000
H    -3.604000000     1.774000000     3.430000000
H    -4.648000000     2.749000000     2.930000000
O     1.952000000     3.654000000    -1.413000000
H     1.547000000     3.991000000    -0.613000000
H     2.793000000     4.108000000    -1.465000000
O     3.892000000     1.980000000    -3.516000000
H     2.969000000     2.185000000    -3.666000000
H     4.324000000     2.834000000    -3.486000000
O    -3.293000000    -1.248000000    -4.978000000
H    -3.261000000    -0.306000000    -5.145000000
H    -2.375000000    -1.508000000    -4.896000000
O    -3.471000000    -0.735000000     4.865000000
H    -2.836000000    -0.117000000     5.228000000
H    -3.665000000    -0.393000000     3.992000000
O     2.949000000    -4.178000000    -4.389000000
H     3.772000000    -4.495000000    -4.760000000
H     2.870000000    -4.639000000    -3.554000000
O     2.796000000    -3.006000000    -0.715000000
H     2.079000000    -2.898000000    -0.090000000
H     3.512000000    -3.374000000    -0.197000000
O     4.618000000     0.612000000     1.904000000
H     4.455000000     0.490000000     0.969000000
H     4.917000000    -0.245000000     2.209000000
O    -5.863000000    -5.071000000    -1.448000000
H    -5.011000000    -5.488000000    -1.574000000
H    -5.704000000    -4.393000000    -0.792000000
O    -6.044000000     0.586000000    -0.208000000
H    -5.287000000     0.207000000     0.239000000
H    -5.716000000     0.825000000    -1.075000000
O    -3.963000000    -3.316000000     4.456000000
H    -3.088000000    -3.492000000     4.109000000
H    -3.930000000    -2.401000000     4.734000000
O     1.712000000    -0.217000000    -4.405000000
H     2.349000000    -0.693000000    -3.873000000
H     1.374000000     0.464000000    -3.822000000
O    -3.149000000    -5.100000000     1.092000000
H    -2.660000000    -4.714000000     1.818000000
H    -3.637000000    -4.368000000     0.715000000
O    -2.194000000     3.359000000     0.469000000
H    -3.001000000     2.881000000     0.281000000
H    -2.488000000     4.176000000     0.873000000
O    -5.492000000     2.980000000     1.284000000
H    -5.554000000     2.411000000     0.516000000
H    -6.361000000     2.937000000     1.683000000
O    -0.445000000     0.538000000     4.135000000
H    -0.899000000     0.645000000     4.970000000
H    -1.140000000     0.574000000     3.478000000
O     5.638000000     2.366000000    -5.786000000
H     4.889000000     2.192000000    -5.215000000
H     6.354000000     2.571000000    -5.185000000
O     3.548000000    -2.004000000    -2.995000000
H     3.426000000    -2.712000000    -3.627000000
H     3.296000000    -2.387000000    -2.155000000
O     4.558000000     0.238000000    -1.016000000
H     4.319000000     1.116000000    -1.313000000
H     4.052000000    -0.351000000    -1.575000000
O     2.295000000     1.799000000     3.529000000
H     1.353000000     1.683000000     3.654000000
H     2.549000000     1.084000000     2.945000000
O    -4.481000000     3.003000000     6.281000000
H    -4.257000000     2.848000000     5.364000000
H    -5.422000000     2.839000000     6.329000000
O     0.879000000     5.238000000     2.998000000
H     0.075000000     4.951000000     3.429000000
H     0.973000000     6.156000000     3.251000000
O    -1.556000000     4.788000000     4.114000000
H    -2.318000000     4.224000000     4.246000000
H    -1.501000000     5.308000000     4.915000000
O    -4.249000000    -1.037000000    -2.171000000
H    -4.328000000    -1.539000000    -2.982000000
H    -3.664000000    -0.313000000    -2.394000000
O    -6.469000000     0.273000000     4.984000000
H    -5.868000000     1.001000000     5.142000000
H    -6.242000000    -0.374000000     5.651000000
O     0.886000000    -2.865000000     0.995000000
H     0.311000000    -2.249000000     0.542000000
H     0.737000000    -2.692000000     1.925000000
O     2.727000000     3.531000000    -5.897000000
H     2.526000000     2.597000000    -5.955000000
H     2.498000000     3.880000000    -6.758000000
O     0.576000000    -1.759000000    -6.412000000
H     0.503000000    -2.616000000    -5.992000000
H     0.933000000    -1.189000000    -5.730000000
O    -1.471000000     1.120000000    -2.568000000
H    -0.669000000     1.555000000    -2.861000000
H    -1.182000000     0.527000000    -1.875000000
O     5.079000000    -3.450000000     0.558000000
H     5.906000000    -3.932000000     0.540000000
H     5.192000000    -2.807000000     1.257000000
O    -6.292000000    -3.823000000     2.210000000
H    -5.351000000    -3.985000000     2.138000000
H    -6.357000000    -2.908000000     2.481000000
O     0.555000000     4.740000000     0.513000000
H    -0.300000000     4.318000000     0.428000000
H     0.646000000     4.910000000     1.451000000
O     2.685000000    -5.303000000    -2.071000000
H     2.498000000    -5.968000000    -1.409000000
H     2.380000000    -4.484000000    -1.681000000
O     5.748000000     2.765000000     3.123000000
H     5.077000000     3.422000000     3.308000000
H     5.280000000     2.070000000     2.659000000
O     1.072000000     2.285000000    -3.597000000
H     1.255000000     2.824000000    -2.827000000
H     0.632000000     2.879000000    -4.206000000
O     3.372000000     0.760000000    -6.307000000
H     2.863000000     0.374000000    -5.594000000
H     3.360000000     0.095000000    -6.995000000
O     0.437000000    -4.226000000    -5.181000000
H     0.112000000    -5.111000000    -5.015000000
H     1.334000000    -4.233000000    -4.845000000
O     5.665000000    -0.579000000    -4.415000000
H     5.001000000     0.083000000    -4.607000000
H     5.273000000    -1.120000000    -3.729000000
O    -7.294000000    -1.262000000     2.932000000
H    -8.214000000    -1.032000000     3.060000000
H    -6.818000000    -0.684000000     3.529000000
O    -4.281000000    -2.542000000     0.346000000
H    -4.498000000    -2.248000000    -0.539000000
H    -4.135000000    -1.733000000     0.838000000
O    -7.910000000    -1.540000000     0.085000000
H    -7.208000000    -0.989000000    -0.260000000
H    -7.743000000    -1.579000000     1.027000000
O    -3.530000000    -6.446000000    -1.340000000
H    -3.788000000    -7.317000000    -1.040000000
H    -3.273000000    -5.984000000    -0.542000000
O     7.257000000    -0.979000000    -1.490000000
H     7.653000000    -0.880000000    -0.624000000
H     6.321000000    -0.842000000    -1.342000000
O     3.712000000     6.313000000     0.874000000
H     3.019000000     5.670000000     0.720000000
H     3.418000000     6.803000000     1.642000000
O    -4.100000000     1.693000000    -2.179000000
H    -4.262000000     2.597000000    -2.450000000
H    -3.147000000     1.605000000    -2.196000000
O     0.823000000    -2.090000000     3.588000000
H     0.814000000    -2.434000000     4.481000000
H     0.570000000    -1.171000000     3.683000000
