158
-3038.38972
C    -1.472000000     0.084000000     0.052000000
H    -2.557000000     0.032000000     0.049000000
C    -0.744000000    -0.659000000    -0.835000000
H    -1.188000000    -1.366000000    -1.531000000
C     0.638000000    -0.758000000    -0.776000000
H     1.106000000    -1.518000000    -1.415000000
C     1.336000000     0.108000000     0.088000000
H     2.407000000     0.294000000     0.071000000
C     0.575000000     0.944000000     0.986000000
H     1.161000000     1.431000000     1.762000000
C    -0.826000000     0.894000000     1.005000000
C    -1.545000000     1.664000000     2.028000000
O    -1.034000000     1.993000000     3.089000000
O    -2.748000000     1.865000000     1.916000000
O     3.399000000     2.912000000     5.376000000
H     3.627000000     2.026000000     5.657000000
H     2.492000000     3.028000000     5.659000000
O    -2.664000000     3.243000000     4.924000000
H    -2.277000000     3.010000000     4.080000000
H    -3.601000000     3.086000000     4.809000000
O     2.303000000     1.192000000    -6.357000000
H     1.957000000     0.558000000    -6.985000000
H     2.226000000     0.756000000    -5.509000000
O     4.724000000     2.901000000    -0.397000000
H     5.101000000     3.622000000     0.107000000
H     5.361000000     2.192000000    -0.312000000
O     1.110000000    -1.699000000    -5.854000000
H     0.539000000    -2.465000000    -5.801000000
H     1.864000000    -1.998000000    -6.363000000
O    -5.089000000     2.309000000    -1.597000000
H    -5.227000000     3.250000000    -1.484000000
H    -5.110000000     1.955000000    -0.708000000
O    -2.299000000     0.136000000     6.039000000
H    -2.325000000    -0.378000000     6.846000000
H    -1.376000000     0.133000000     5.783000000
O     3.153000000    -3.447000000    -1.833000000
H     2.423000000    -3.196000000    -2.399000000
H     3.002000000    -2.965000000    -1.019000000
O     4.943000000    -2.939000000     2.461000000
H     5.164000000    -2.617000000     1.588000000
H     4.369000000    -2.266000000     2.827000000
O    -5.330000000    -4.310000000    -0.452000000
H    -4.807000000    -4.576000000     0.304000000
H    -4.694000000    -3.941000000    -1.065000000
O    -3.436000000     0.740000000    -3.164000000
H    -2.769000000     1.424000000    -3.211000000
H    -3.967000000     0.975000000    -2.403000000
O    -4.881000000     1.459000000     0.769000000
H    -4.163000000     1.652000000     1.372000000
H    -5.035000000     0.520000000     0.874000000
O     1.715000000    -0.863000000     6.457000000
H     1.659000000    -0.406000000     7.296000000
H     1.063000000    -0.432000000     5.905000000
O     0.701000000     4.147000000     2.864000000
H     0.368000000     3.317000000     3.205000000
H     0.280000000     4.814000000     3.407000000
O    -0.912000000    -0.691000000    -7.603000000
H    -0.508000000    -1.149000000    -6.865000000
H    -0.216000000    -0.631000000    -8.257000000
O     2.214000000     0.524000000    -3.663000000
H     1.538000000    -0.018000000    -3.255000000
H     2.014000000     1.414000000    -3.374000000
O     1.476000000    -3.034000000     3.308000000
H     2.167000000    -2.949000000     3.965000000
H     0.791000000    -3.540000000     3.744000000
O     0.535000000    -5.798000000    -0.686000000
H     0.436000000    -5.169000000    -1.400000000
H     1.046000000    -5.332000000    -0.024000000
O    -5.597000000     3.565000000     3.755000000
H    -6.113000000     3.520000000     2.949000000
H    -5.940000000     2.856000000     4.299000000
O    -4.766000000     6.071000000     3.450000000
H    -5.334000000     6.191000000     2.690000000
H    -5.039000000     5.233000000     3.824000000
O     0.091000000     0.906000000     5.183000000
H     0.229000000     1.724000000     5.660000000
H    -0.303000000     1.176000000     4.353000000
O     5.467000000    -4.176000000    -3.325000000
H     5.284000000    -4.618000000    -4.154000000
H     4.605000000    -4.041000000    -2.931000000
O     0.368000000    -3.959000000    -2.822000000
H     0.545000000    -4.355000000    -3.675000000
H    -0.398000000    -3.404000000    -2.970000000
O     6.489000000     0.672000000    -0.023000000
H     6.507000000    -0.257000000     0.206000000
H     6.523000000     1.127000000     0.819000000
O     3.401000000    -0.808000000     3.053000000
H     3.093000000     0.049000000     3.346000000
H     2.632000000    -1.214000000     2.651000000
O    -2.371000000     5.962000000     2.398000000
H    -2.051000000     5.368000000     3.077000000
H    -3.236000000     6.234000000     2.707000000
O    -2.366000000    -3.321000000    -5.470000000
H    -2.987000000    -3.570000000    -4.785000000
H    -2.023000000    -2.474000000    -5.186000000
O    -0.752000000     5.244000000     4.954000000
H    -1.304000000     4.509000000     5.217000000
H    -0.938000000     5.927000000     5.598000000
O    -5.221000000    -1.043000000    -0.431000000
H    -4.583000000    -1.737000000    -0.263000000
H    -5.878000000    -1.453000000    -0.993000000
O     0.722000000     3.444000000     6.431000000
H     0.516000000     4.237000000     5.936000000
H     0.861000000     3.750000000     7.328000000
O    -4.025000000     0.365000000     3.821000000
H    -3.375000000     0.185000000     4.501000000
H    -3.578000000     0.955000000     3.214000000
O     0.510000000    -4.807000000    -5.621000000
H     1.077000000    -5.232000000    -6.265000000
H    -0.353000000    -5.192000000    -5.770000000
O     2.448000000    -4.987000000     1.244000000
H     2.187000000    -4.269000000     1.821000000
H     2.914000000    -5.596000000     1.815000000
O    -1.198000000    -1.324000000    -4.170000000
H    -0.366000000    -1.000000000    -4.516000000
H    -1.697000000    -0.533000000    -3.966000000
O     0.388000000     4.321000000     0.333000000
H    -0.569000000     4.296000000     0.340000000
H     0.640000000     4.102000000     1.230000000
O    -3.935000000    -2.917000000    -2.583000000
H    -3.457000000    -2.093000000    -2.674000000
H    -4.719000000    -2.800000000    -3.120000000
O     4.433000000     5.247000000     3.251000000
H     4.514000000     5.930000000     3.917000000
H     4.018000000     4.515000000     3.709000000
O    -1.291000000     2.599000000    -3.579000000
H    -0.569000000     3.003000000    -3.098000000
H    -1.367000000     3.121000000    -4.378000000
O     4.264000000    -6.139000000    -0.978000000
H     3.730000000    -5.345000000    -0.983000000
H     3.650000000    -6.839000000    -0.758000000
O     1.713000000     3.123000000    -2.086000000
H     2.665000000     3.066000000    -2.011000000
H     1.414000000     3.329000000    -1.200000000
O    -1.429000000    -7.068000000    -2.321000000
H    -0.732000000    -6.650000000    -1.815000000
H    -1.594000000    -7.893000000    -1.865000000
O     5.016000000    -0.511000000    -6.032000000
H     4.237000000     0.008000000    -6.234000000
H     4.915000000    -0.746000000    -5.110000000
O    -0.838000000    -2.606000000     1.735000000
H     0.074000000    -2.894000000     1.754000000
H    -0.808000000    -1.741000000     1.327000000
O    -4.369000000    -2.665000000     3.463000000
H    -3.862000000    -3.139000000     2.805000000
H    -4.085000000    -1.755000000     3.376000000
O    -7.416000000     2.639000000     1.552000000
H    -6.638000000     2.164000000     1.260000000
H    -7.542000000     3.321000000     0.893000000
O    -3.101000000    -4.015000000     1.611000000
H    -3.029000000    -4.962000000     1.733000000
H    -2.203000000    -3.694000000     1.687000000
O     4.563000000    -1.044000000    -3.343000000
H     3.851000000    -0.452000000    -3.585000000
H     5.074000000    -0.553000000    -2.699000000
O    -2.209000000     3.946000000     0.273000000
H    -2.383000000     3.156000000     0.784000000
H    -2.606000000     4.653000000     0.782000000
