158
-3023.10488
C    -1.382000000     0.387000000     0.502000000
H    -2.410000000     0.722000000     0.613000000
C    -1.006000000    -0.280000000    -0.648000000
H    -1.788000000    -0.582000000    -1.340000000
C     0.260000000    -0.602000000    -1.082000000
H     0.547000000    -1.247000000    -1.927000000
C     1.289000000    -0.127000000    -0.240000000
H     2.314000000    -0.358000000    -0.518000000
C     0.947000000     0.516000000     0.959000000
H     1.725000000     0.780000000     1.671000000
C    -0.396000000     0.707000000     1.376000000
C    -0.700000000     1.293000000     2.751000000
O     0.116000000     2.091000000     3.204000000
O    -1.781000000     1.237000000     3.279000000
O    -5.719000000    -1.580000000    -1.613000000
H    -6.497000000    -1.025000000    -1.549000000
H    -5.268000000    -1.271000000    -2.399000000
O     4.771000000    -0.523000000     5.034000000
H     4.134000000     0.132000000     4.748000000
H     4.415000000    -0.861000000     5.856000000
O    -1.000000000     4.173000000     4.491000000
H    -0.503000000     3.404000000     4.212000000
H    -1.721000000     4.232000000     3.865000000
O     4.059000000    -0.551000000    -5.723000000
H     3.526000000    -1.292000000    -6.010000000
H     3.764000000    -0.374000000    -4.830000000
O     3.840000000     2.213000000     0.523000000
H     3.825000000     2.639000000     1.380000000
H     3.991000000     1.288000000     0.717000000
O    -2.287000000     1.512000000    -3.436000000
H    -2.960000000     2.101000000    -3.776000000
H    -1.905000000     1.986000000    -2.698000000
O    -2.309000000    -0.143000000     5.622000000
H    -2.688000000     0.403000000     6.311000000
H    -2.106000000     0.470000000     4.915000000
O     3.379000000    -4.655000000    -3.122000000
H     2.454000000    -4.458000000    -3.274000000
H     3.849000000    -4.066000000    -3.712000000
O     5.697000000    -1.931000000    -0.540000000
H     6.593000000    -1.759000000    -0.830000000
H     5.261000000    -2.292000000    -1.312000000
O    -3.053000000    -2.791000000    -1.304000000
H    -2.576000000    -2.818000000    -2.133000000
H    -3.975000000    -2.748000000    -1.559000000
O    -4.143000000    -0.633000000    -3.509000000
H    -4.861000000    -0.168000000    -3.939000000
H    -3.440000000     0.014000000    -3.450000000
O    -4.256000000     0.482000000     2.899000000
H    -3.350000000     0.682000000     3.136000000
H    -4.182000000    -0.175000000     2.206000000
O     1.118000000    -1.442000000     4.798000000
H     1.878000000    -1.200000000     5.326000000
H     0.376000000    -1.036000000     5.247000000
O     0.885000000     4.561000000     1.635000000
H     0.718000000     3.717000000     2.053000000
H     0.553000000     5.207000000     2.258000000
O     2.809000000    -0.294000000    -3.082000000
H     2.463000000    -1.153000000    -2.840000000
H     2.036000000     0.267000000    -3.140000000
O     1.510000000    -3.790000000    -0.010000000
H     1.104000000    -3.177000000     0.604000000
H     0.775000000    -4.168000000    -0.493000000
O     3.021000000    -2.553000000     2.682000000
H     2.505000000    -2.183000000     3.398000000
H     2.461000000    -3.236000000     2.312000000
O    -3.023000000     3.960000000     2.006000000
H    -3.858000000     3.850000000     1.552000000
H    -2.475000000     3.247000000     1.676000000
O     2.478000000     1.280000000     4.555000000
H     2.581000000     1.737000000     5.389000000
H     1.575000000     1.459000000     4.293000000
O     5.145000000    -2.973000000    -4.205000000
H     5.651000000    -2.314000000    -3.729000000
H     5.535000000    -2.989000000    -5.079000000
O    -0.749000000    -5.153000000    -0.814000000
H    -0.715000000    -6.083000000    -0.590000000
H    -1.224000000    -5.125000000    -1.645000000
O     4.485000000    -0.305000000     1.054000000
H     4.933000000    -0.726000000     0.320000000
H     4.794000000    -0.779000000     1.827000000
O    -6.604000000     2.171000000     1.445000000
H    -6.970000000     1.294000000     1.330000000
H    -5.657000000     2.040000000     1.418000000
O    -2.062000000    -0.127000000    -6.158000000
H    -1.861000000    -0.757000000    -6.850000000
H    -1.684000000    -0.511000000    -5.366000000
O    -0.959000000     4.893000000     6.945000000
H    -0.844000000     4.603000000     6.040000000
H    -1.850000000     4.626000000     7.171000000
O    -0.457000000     5.943000000    -0.432000000
H    -0.324000000     5.470000000     0.389000000
H    -0.812000000     6.791000000    -0.166000000
O    -1.244000000    -4.308000000    -3.560000000
H    -1.951000000    -3.943000000    -4.092000000
H    -0.491000000    -3.747000000    -3.745000000
O     0.299000000     6.322000000     3.676000000
H     0.016000000     7.007000000     4.282000000
H    -0.313000000     5.602000000     3.827000000
O    -4.113000000    -1.313000000     0.783000000
H    -4.728000000    -1.292000000     0.050000000
H    -3.292000000    -1.621000000     0.398000000
O    -4.062000000     3.964000000     4.545000000
H    -4.776000000     4.526000000     4.244000000
H    -3.695000000     3.593000000     3.743000000
O    -2.536000000    -2.936000000     5.133000000
H    -2.447000000    -3.263000000     6.028000000
H    -2.617000000    -1.987000000     5.232000000
O     1.098000000    -5.036000000    -5.121000000
H     1.362000000    -5.754000000    -5.697000000
H     0.407000000    -5.411000000    -4.574000000
O     0.694000000     3.718000000    -5.024000000
H     0.298000000     4.533000000    -4.717000000
H     0.764000000     3.175000000    -4.239000000
O     4.192000000    -4.213000000     0.671000000
H     4.661000000    -3.387000000     0.552000000
H     3.273000000    -3.989000000     0.524000000
O     0.593000000    -2.485000000    -4.996000000
H     1.070000000    -3.301000000    -5.148000000
H     0.676000000    -2.002000000    -5.818000000
O    -3.561000000    -3.360000000    -4.519000000
H    -3.826000000    -2.468000000    -4.296000000
H    -4.303000000    -3.903000000    -4.252000000
O     3.612000000     5.028000000     2.060000000
H     3.719000000     4.360000000     2.736000000
H     2.684000000     4.987000000     1.827000000
O     0.750000000     1.507000000    -3.390000000
H     0.505000000     1.419000000    -2.469000000
H    -0.079000000     1.452000000    -3.864000000
O     3.209000000     3.360000000    -2.114000000
H     3.395000000     2.906000000    -1.293000000
H     2.762000000     4.164000000    -1.847000000
O    -0.175000000    -2.190000000     1.701000000
H    -0.093000000    -2.115000000     2.652000000
H    -0.247000000    -1.286000000     1.395000000
O    -3.915000000     1.059000000     7.503000000
H    -4.215000000     1.719000000     8.129000000
H    -4.372000000     1.275000000     6.691000000
O     6.628000000     1.975000000     0.626000000
H     5.689000000     2.051000000     0.459000000
H     6.953000000     2.874000000     0.584000000
O    -5.175000000     1.573000000     5.141000000
H    -4.801000000     2.438000000     4.978000000
H    -5.040000000     1.095000000     4.323000000
O    -3.822000000     3.060000000    -0.753000000
H    -4.768000000     3.073000000    -0.612000000
H    -3.719000000     3.151000000    -1.700000000
O    -2.191000000    -4.424000000     1.540000000
H    -1.617000000    -4.649000000     0.807000000
H    -2.123000000    -3.472000000     1.613000000
O     5.659000000    -0.458000000    -2.904000000
H     4.731000000    -0.232000000    -2.973000000
H     5.977000000     0.061000000    -2.165000000
O     4.545000000     2.799000000     3.360000000
H     4.049000000     2.030000000     3.639000000
H     5.370000000     2.740000000     3.842000000
O    -1.263000000     3.421000000    -1.390000000
H    -2.063000000     3.603000000    -0.896000000
H    -0.639000000     4.079000000    -1.086000000
