158
-3052.66700
C    -1.366000000    -0.034000000     0.393000000
H    -2.445000000     0.005000000     0.517000000
C    -0.765000000    -0.896000000    -0.496000000
H    -1.347000000    -1.565000000    -1.125000000
C     0.560000000    -0.728000000    -0.788000000
H     0.928000000    -1.435000000    -1.553000000
C     1.361000000     0.162000000    -0.045000000
H     2.414000000     0.303000000    -0.274000000
C     0.735000000     0.991000000     0.836000000
H     1.307000000     1.790000000     1.302000000
C    -0.654000000     0.957000000     1.040000000
C    -1.408000000     1.987000000     1.898000000
O    -0.808000000     2.983000000     2.218000000
O    -2.563000000     1.740000000     2.359000000
O    -1.593000000     2.830000000     4.739000000
H    -0.803000000     3.292000000     4.459000000
H    -1.926000000     2.420000000     3.941000000
O     3.708000000     1.149000000    -3.937000000
H     4.063000000     0.918000000    -3.079000000
H     4.273000000     1.857000000    -4.247000000
O     5.374000000     0.245000000     0.966000000
H     4.901000000     0.387000000     1.786000000
H     4.897000000    -0.464000000     0.535000000
O    -1.506000000     0.173000000    -5.523000000
H    -2.079000000     0.347000000    -4.776000000
H    -0.708000000     0.666000000    -5.334000000
O    -3.572000000    -0.645000000     3.396000000
H    -4.334000000    -0.882000000     2.867000000
H    -3.085000000    -0.028000000     2.850000000
O     3.833000000    -4.794000000    -4.129000000
H     3.516000000    -5.499000000    -4.693000000
H     4.765000000    -4.720000000    -4.339000000
O    -4.091000000    -3.729000000     0.473000000
H    -4.432000000    -3.763000000     1.367000000
H    -3.152000000    -3.581000000     0.580000000
O    -4.155000000     4.229000000     6.221000000
H    -4.819000000     4.837000000     5.895000000
H    -3.889000000     3.728000000     5.450000000
O     6.169000000    -2.279000000    -1.684000000
H     6.765000000    -1.540000000    -1.559000000
H     5.400000000    -1.898000000    -2.108000000
O    -4.810000000    -0.642000000    -1.362000000
H    -4.745000000    -1.472000000    -1.834000000
H    -5.295000000    -0.067000000    -1.954000000
O    -3.275000000    -2.413000000    -5.943000000
H    -3.951000000    -1.983000000    -6.467000000
H    -2.865000000    -1.702000000    -5.451000000
O    -5.079000000     2.481000000     3.242000000
H    -4.200000000     2.309000000     2.903000000
H    -5.322000000     3.324000000     2.861000000
O     0.912000000    -0.955000000     3.129000000
H     0.252000000    -1.356000000     3.695000000
H     0.946000000    -0.041000000     3.412000000
O     0.447000000     4.916000000     3.168000000
H     0.101000000     4.167000000     2.682000000
H     0.343000000     5.657000000     2.571000000
O     2.765000000    -1.935000000    -4.964000000
H     1.985000000    -2.406000000    -5.257000000
H     3.483000000    -2.553000000    -5.097000000
O     3.630000000    -2.452000000     0.259000000
H     2.692000000    -2.538000000     0.427000000
H     3.685000000    -2.158000000    -0.650000000
O    -2.435000000     5.110000000     1.789000000
H    -3.331000000     4.839000000     1.588000000
H    -1.980000000     4.295000000     2.000000000
O     1.605000000     1.708000000     3.911000000
H     1.640000000     2.239000000     4.707000000
H     1.111000000     2.243000000     3.289000000
O     2.062000000    -4.047000000    -2.087000000
H     2.869000000    -4.243000000    -2.562000000
H     1.362000000    -4.329000000    -2.676000000
O     3.579000000    -1.113000000     3.147000000
H     3.861000000    -1.794000000     2.537000000
H     2.642000000    -1.012000000     2.976000000
O    -6.868000000     1.201000000     1.454000000
H    -6.650000000     0.269000000     1.455000000
H    -6.177000000     1.609000000     1.976000000
O    -1.065000000     4.822000000     6.854000000
H    -1.686000000     4.912000000     7.577000000
H    -1.419000000     4.108000000     6.322000000
O    -1.749000000     3.820000000    -0.736000000
H    -1.631000000     4.046000000     0.187000000
H    -2.585000000     3.355000000    -0.763000000
O     0.054000000    -4.452000000    -4.245000000
H    -0.900000000    -4.382000000    -4.253000000
H     0.361000000    -3.577000000    -4.482000000
O     1.968000000     5.652000000     5.095000000
H     2.519000000     6.366000000     4.774000000
H     1.375000000     5.462000000     4.369000000
O    -0.236000000     7.059000000     1.289000000
H    -0.423000000     7.956000000     1.014000000
H    -1.078000000     6.722000000     1.597000000
O    -4.807000000    -2.891000000    -3.133000000
H    -5.564000000    -3.275000000    -3.575000000
H    -4.283000000    -3.643000000    -2.858000000
O    -1.290000000    -2.024000000     4.216000000
H    -1.374000000    -2.232000000     5.146000000
H    -2.173000000    -1.773000000     3.946000000
O     2.058000000    -5.698000000     0.341000000
H     1.529000000    -5.748000000    -0.455000000
H     1.981000000    -4.786000000     0.622000000
O     5.996000000    -4.612000000    -0.475000000
H     6.068000000    -4.332000000    -1.387000000
H     5.434000000    -3.955000000    -0.066000000
O     0.106000000    -2.401000000    -6.447000000
H     0.344000000    -2.498000000    -7.369000000
H    -0.227000000    -1.506000000    -6.378000000
O    -5.279000000     4.263000000     1.292000000
H    -5.328000000     3.841000000     0.434000000
H    -5.521000000     5.174000000     1.126000000
O     3.405000000     4.414000000    -0.673000000
H     2.968000000     4.195000000    -1.496000000
H     2.865000000     5.107000000    -0.293000000
O     0.196000000    -6.497000000    -1.743000000
H    -0.268000000    -6.556000000    -2.578000000
H    -0.380000000    -5.973000000    -1.186000000
O     4.087000000     4.520000000     3.366000000
H     3.988000000     3.571000000     3.443000000
H     3.488000000     4.878000000     4.022000000
O     1.551000000    -3.436000000     1.994000000
H     1.452000000    -3.914000000     2.817000000
H     1.447000000    -2.516000000     2.237000000
O     0.871000000     1.615000000    -4.505000000
H     1.774000000     1.368000000    -4.306000000
H     0.526000000     1.952000000    -3.678000000
O     4.803000000     1.740000000    -1.327000000
H     5.045000000     1.450000000    -0.448000000
H     4.387000000     2.592000000    -1.192000000
O    -1.525000000    -3.113000000     1.669000000
H    -1.085000000    -2.544000000     1.038000000
H    -1.153000000    -2.866000000     2.516000000
O    -3.584000000     0.119000000     6.128000000
H    -3.114000000     0.951000000     6.184000000
H    -3.771000000     0.012000000     5.196000000
O    -6.763000000     0.987000000     4.703000000
H    -6.101000000     1.548000000     4.300000000
H    -6.680000000     1.154000000     5.642000000
O    -4.033000000     1.762000000    -0.392000000
H    -4.815000000     2.258000000    -0.633000000
H    -4.310000000     0.846000000    -0.429000000
O    -1.406000000    -5.363000000    -0.098000000
H    -1.265000000    -4.622000000     0.492000000
H    -2.172000000    -5.812000000     0.260000000
O     3.587000000    -1.378000000    -2.214000000
H     3.185000000    -1.545000000    -3.067000000
H     3.259000000    -0.516000000    -1.960000000
O     4.410000000     1.762000000     3.131000000
H     3.480000000     1.553000000     3.219000000
H     4.821000000     1.349000000     3.891000000
O    -5.784000000    -1.460000000     1.844000000
H    -5.596000000    -1.680000000     0.932000000
H    -5.934000000    -2.305000000     2.268000000
O     5.473000000     4.419000000     1.134000000
H     5.070000000     4.395000000     2.002000000
H     4.738000000     4.342000000     0.526000000
O     0.431000000     2.528000000    -1.964000000
H     0.419000000     1.669000000    -1.540000000
H    -0.314000000     2.993000000    -1.584000000
