158
-3014.74915
C    -0.459000000    -0.186000000     1.429000000
H    -0.764000000    -0.519000000     2.417000000
C     0.624000000    -0.837000000     0.812000000
H     1.148000000    -1.665000000     1.283000000
C     1.014000000    -0.424000000    -0.496000000
H     1.851000000    -0.889000000    -1.093000000
C     0.137000000     0.326000000    -1.246000000
H     0.447000000     0.464000000    -2.278000000
C    -0.969000000     0.963000000    -0.637000000
H    -1.581000000     1.628000000    -1.241000000
C    -1.214000000     0.709000000     0.690000000
C    -2.396000000     1.352000000     1.364000000
O    -2.526000000     2.561000000     1.320000000
O    -3.196000000     0.622000000     1.915000000
O     0.508000000     1.386000000     4.226000000
H     0.516000000     0.432000000     4.141000000
H     1.380000000     1.604000000     4.554000000
O    -6.497000000     2.383000000     2.229000000
H    -5.894000000     2.036000000     2.886000000
H    -7.124000000     1.674000000     2.082000000
O    -5.065000000     2.119000000    -2.918000000
H    -4.823000000     2.358000000    -2.023000000
H    -4.484000000     1.390000000    -3.136000000
O    -2.466000000     0.328000000    -3.909000000
H    -1.911000000    -0.354000000    -4.286000000
H    -2.189000000     1.133000000    -4.348000000
O     6.750000000     1.887000000    -1.686000000
H     7.203000000     1.325000000    -1.057000000
H     5.897000000     2.056000000    -1.286000000
O     0.546000000    -1.619000000     4.956000000
H     0.077000000    -2.213000000     5.542000000
H     1.397000000    -2.037000000     4.823000000
O    -1.486000000     4.220000000    -0.714000000
H    -1.527000000     3.525000000    -0.058000000
H    -1.851000000     4.988000000    -0.273000000
O     2.926000000    -5.217000000     4.126000000
H     2.881000000    -4.361000000     4.552000000
H     3.793000000    -5.552000000     4.352000000
O    -3.920000000    -2.482000000     5.378000000
H    -4.445000000    -2.073000000     6.065000000
H    -3.034000000    -2.516000000     5.740000000
O     5.449000000     1.938000000     2.659000000
H     6.139000000     2.461000000     2.252000000
H     5.186000000     1.317000000     1.979000000
O     6.892000000     0.010000000     0.257000000
H     7.310000000    -0.574000000    -0.376000000
H     7.246000000    -0.262000000     1.104000000
O    -0.970000000    -2.319000000    -2.294000000
H    -0.849000000    -1.402000000    -2.048000000
H    -1.718000000    -2.611000000    -1.772000000
O    -5.598000000     1.048000000     5.900000000
H    -6.395000000     0.825000000     5.418000000
H    -5.029000000     1.453000000     5.246000000
O     2.646000000     4.309000000     2.034000000
H     3.041000000     3.440000000     2.094000000
H     1.705000000     4.141000000     1.977000000
O    -4.564000000    -1.340000000    -3.237000000
H    -4.505000000    -1.228000000    -2.288000000
H    -3.938000000    -0.709000000    -3.592000000
O    -4.068000000     2.010000000     3.904000000
H    -3.665000000     2.878000000     3.938000000
H    -3.760000000     1.636000000     3.079000000
O     5.408000000    -4.130000000    -4.435000000
H     5.607000000    -4.936000000    -3.960000000
H     5.332000000    -3.462000000    -3.753000000
O     4.922000000    -2.330000000    -2.288000000
H     4.344000000    -1.592000000    -2.096000000
H     5.803000000    -1.993000000    -2.123000000
O    -0.192000000     3.895000000     2.867000000
H     0.032000000     3.087000000     3.327000000
H    -1.133000000     3.825000000     2.704000000
O     4.119000000     2.493000000    -0.926000000
H     3.519000000     2.212000000    -0.235000000
H     3.702000000     3.266000000    -1.306000000
O    -3.728000000     6.046000000    -3.318000000
H    -2.986000000     5.792000000    -2.769000000
H    -3.445000000     5.845000000    -4.210000000
O     3.308000000    -3.532000000    -6.106000000
H     3.215000000    -2.777000000    -5.523000000
H     4.112000000    -3.961000000    -5.815000000
O     0.096000000     4.115000000    -2.807000000
H    -0.496000000     4.101000000    -2.055000000
H     0.963000000     4.249000000    -2.426000000
O     0.698000000    -0.052000000    -5.839000000
H     1.499000000    -0.524000000    -5.612000000
H     0.946000000     0.872000000    -5.804000000
O    -2.790000000     4.574000000     4.411000000
H    -2.085000000     4.671000000     5.051000000
H    -3.536000000     5.027000000     4.805000000
O    -3.037000000    -2.276000000     2.804000000
H    -3.427000000    -2.330000000     3.676000000
H    -3.106000000    -1.351000000     2.568000000
O    -2.050000000     0.441000000     5.197000000
H    -1.334000000     0.046000000     4.700000000
H    -2.628000000     0.814000000     4.531000000
O    -2.145000000    -2.559000000    -5.565000000
H    -1.392000000    -2.908000000    -5.089000000
H    -2.511000000    -3.315000000    -6.023000000
O     5.759000000     0.997000000    -4.155000000
H     5.926000000     1.429000000    -3.317000000
H     6.559000000     1.136000000    -4.661000000
O    -0.190000000    -0.298000000     7.732000000
H    -0.886000000    -0.753000000     8.205000000
H    -0.603000000    -0.005000000     6.920000000
O    -1.782000000     2.837000000    -4.675000000
H    -2.479000000     3.472000000    -4.838000000
H    -1.262000000     3.227000000    -3.973000000
O     3.886000000     0.220000000    -2.409000000
H     3.817000000     0.980000000    -1.830000000
H     4.228000000     0.575000000    -3.230000000
O     4.696000000    -3.618000000     0.286000000
H     4.439000000    -3.177000000    -0.523000000
H     5.637000000    -3.765000000     0.190000000
O     2.566000000    -1.490000000    -4.288000000
H     1.776000000    -1.909000000    -3.946000000
H     2.910000000    -0.990000000    -3.548000000
O    -3.161000000    -4.958000000     2.035000000
H    -3.054000000    -4.023000000     2.205000000
H    -2.837000000    -5.385000000     2.828000000
O     0.495000000    -4.405000000    -3.479000000
H    -0.212000000    -4.730000000    -4.037000000
H     0.063000000    -3.808000000    -2.868000000
O    -4.895000000     2.803000000     0.150000000
H    -5.303000000     2.925000000     1.008000000
H    -3.959000000     2.736000000     0.338000000
O    -3.452000000     4.950000000     1.870000000
H    -3.190000000     4.139000000     1.434000000
H    -3.270000000     4.793000000     2.797000000
O     4.289000000    -1.031000000     2.260000000
H     4.668000000    -1.408000000     3.054000000
H     4.614000000    -1.588000000     1.553000000
O    -0.325000000     6.975000000     2.992000000
H    -0.279000000     6.077000000     2.665000000
H     0.587000000     7.265000000     3.026000000
O    -4.340000000    -1.025000000    -0.681000000
H    -5.146000000    -0.996000000    -0.166000000
H    -3.727000000    -0.471000000    -0.198000000
O     2.538000000     1.418000000     1.430000000
H     3.066000000     0.627000000     1.534000000
H     1.635000000     1.101000000     1.405000000
O    -7.045000000    -1.926000000     0.455000000
H    -7.546000000    -2.608000000     0.008000000
H    -6.400000000    -2.404000000     0.975000000
O     3.896000000    -6.616000000    -1.233000000
H     3.504000000    -5.966000000    -1.816000000
H     3.211000000    -6.809000000    -0.594000000
O    -2.731000000    -3.236000000    -0.601000000
H    -3.369000000    -2.523000000    -0.548000000
H    -2.399000000    -3.326000000     0.292000000
O     2.933000000    -4.701000000    -2.825000000
H     2.001000000    -4.803000000    -3.016000000
H     3.162000000    -3.848000000    -3.194000000
O     2.858000000    -0.429000000     6.010000000
H     1.938000000    -0.629000000     5.833000000
H     3.089000000     0.233000000     5.358000000
O    -0.536000000     3.110000000     6.266000000
H    -0.770000000     2.651000000     7.073000000
H    -0.511000000     2.424000000     5.599000000
