158
-3049.88094
C     0.938000000    -1.011000000    -0.584000000
H     1.607000000    -1.638000000    -1.167000000
C     0.384000000     0.092000000    -1.206000000
H     0.619000000     0.364000000    -2.232000000
C    -0.545000000     0.917000000    -0.626000000
H    -1.013000000     1.725000000    -1.311000000
C    -0.825000000     0.702000000     0.752000000
H    -1.483000000     1.334000000     1.343000000
C    -0.219000000    -0.353000000     1.428000000
H    -0.319000000    -0.394000000     2.509000000
C     0.714000000    -1.191000000     0.794000000
C     1.341000000    -2.294000000     1.553000000
O     0.758000000    -2.759000000     2.479000000
O     2.343000000    -2.847000000     1.102000000
O     2.604000000    -7.646000000     1.069000000
H     2.344000000    -6.848000000     1.530000000
H     2.125000000    -8.345000000     1.514000000
O     0.874000000     4.860000000     2.960000000
H     1.001000000     4.755000000     3.903000000
H    -0.069000000     4.988000000     2.858000000
O    -0.024000000     4.296000000    -2.048000000
H     0.660000000     3.855000000    -2.552000000
H     0.433000000     4.656000000    -1.288000000
O    -3.800000000    -4.067000000     3.103000000
H    -3.030000000    -4.061000000     2.535000000
H    -3.444000000    -4.146000000     3.988000000
O     4.159000000    -4.188000000    -0.508000000
H     3.539000000    -3.794000000     0.106000000
H     4.818000000    -4.601000000     0.049000000
O    -5.833000000     4.051000000    -1.056000000
H    -6.732000000     3.895000000    -0.766000000
H    -5.387000000     3.217000000    -0.914000000
O     2.476000000    -5.144000000     2.614000000
H     2.988000000    -4.930000000     3.393000000
H     2.303000000    -4.298000000     2.201000000
O     5.263000000    -0.977000000    -1.658000000
H     4.735000000    -0.543000000    -2.328000000
H     5.736000000    -1.662000000    -2.131000000
O     2.348000000    -0.325000000    -6.875000000
H     3.204000000     0.049000000    -6.665000000
H     1.719000000     0.316000000    -6.544000000
O     3.874000000     0.634000000    -3.822000000
H     4.497000000     1.270000000    -4.172000000
H     3.069000000     1.135000000    -3.688000000
O    -2.265000000     4.376000000     3.454000000
H    -2.092000000     4.194000000     2.530000000
H    -3.218000000     4.447000000     3.509000000
O    -1.161000000    -0.987000000     5.722000000
H    -1.321000000    -0.161000000     5.265000000
H    -1.212000000    -0.760000000     6.650000000
O    -1.984000000    -2.518000000    -1.306000000
H    -1.911000000    -3.239000000    -0.680000000
H    -1.203000000    -1.987000000    -1.153000000
O    -2.662000000     3.901000000    -1.859000000
H    -1.718000000     3.954000000    -2.010000000
H    -2.878000000     2.981000000    -2.012000000
O    -2.421000000    -3.371000000     5.292000000
H    -1.711000000    -4.012000000     5.325000000
H    -1.992000000    -2.530000000     5.450000000
O    -4.100000000     1.904000000    -5.531000000
H    -4.071000000     1.046000000    -5.108000000
H    -4.344000000     1.716000000    -6.438000000
O     3.298000000    -3.780000000     5.091000000
H     2.854000000    -2.939000000     4.984000000
H     3.094000000    -4.046000000     5.988000000
O     1.358000000    -1.647000000     4.788000000
H     1.296000000    -2.125000000     3.961000000
H     0.450000000    -1.534000000     5.068000000
O     4.448000000    -0.916000000     1.067000000
H     4.843000000    -1.063000000     0.207000000
H     3.563000000    -1.273000000     0.988000000
O    -0.440000000    -6.415000000     0.263000000
H    -1.191000000    -6.757000000    -0.223000000
H     0.304000000    -6.546000000    -0.324000000
O     2.424000000     3.629000000    -4.240000000
H     2.582000000     4.256000000    -4.946000000
H     2.767000000     4.058000000    -3.457000000
O    -1.867000000     4.402000000     0.843000000
H    -2.168000000     3.864000000     0.112000000
H    -2.303000000     5.245000000     0.716000000
O    -0.441000000    -7.041000000     3.098000000
H    -0.507000000    -6.818000000     2.170000000
H    -0.129000000    -7.946000000     3.106000000
O    -3.289000000    -0.543000000    -4.462000000
H    -3.602000000    -1.443000000    -4.369000000
H    -2.398000000    -0.634000000    -4.802000000
O     2.174000000     0.940000000     4.499000000
H     1.665000000     1.228000000     5.257000000
H     2.071000000    -0.011000000     4.489000000
O    -0.099000000    -4.768000000     4.695000000
H    -0.252000000    -5.589000000     4.225000000
H     0.361000000    -4.214000000     4.064000000
O     1.049000000     1.131000000    -5.149000000
H     0.132000000     1.287000000    -5.374000000
H     1.376000000     1.988000000    -4.873000000
O     4.820000000    -0.527000000     3.996000000
H     4.744000000    -0.676000000     3.054000000
H     4.056000000    -0.966000000     4.371000000
O    -1.886000000     1.458000000     4.580000000
H    -0.972000000     1.563000000     4.843000000
H    -2.245000000     2.345000000     4.603000000
O    -4.862000000    -2.206000000    -2.231000000
H    -4.277000000    -1.554000000    -1.845000000
H    -4.289000000    -2.940000000    -2.452000000
O     2.237000000    -7.084000000     4.761000000
H     1.951000000    -6.506000000     4.054000000
H     3.135000000    -7.320000000     4.529000000
O     5.784000000    -4.915000000     1.434000000
H     5.583000000    -4.784000000     2.361000000
H     5.783000000    -5.866000000     1.321000000
O    -5.253000000     1.545000000     0.527000000
H    -5.199000000     1.256000000     1.438000000
H    -4.548000000     1.072000000     0.084000000
O    -3.880000000     1.010000000    -2.235000000
H    -3.328000000     0.534000000    -2.855000000
H    -4.750000000     1.002000000    -2.634000000
O    -4.648000000     0.556000000     3.150000000
H    -3.864000000     0.768000000     3.657000000
H    -4.890000000    -0.323000000     3.440000000
O     2.499000000     2.220000000    -0.763000000
H     1.906000000     1.785000000    -0.150000000
H     3.321000000     1.736000000    -0.685000000
O     3.900000000    -4.165000000    -3.220000000
H     3.050000000    -4.089000000    -3.655000000
H     3.696000000    -4.122000000    -2.286000000
O     1.968000000     1.969000000     2.054000000
H     2.023000000     1.775000000     2.990000000
H     1.062000000     2.250000000     1.920000000
O     2.617000000     5.851000000    -2.257000000
H     2.754000000     5.833000000    -1.310000000
H     3.290000000     6.449000000    -2.584000000
O    -0.968000000     6.957000000    -2.922000000
H    -1.749000000     6.519000000    -3.259000000
H    -0.532000000     6.293000000    -2.388000000
O    -1.449000000    -4.056000000     1.417000000
H    -0.991000000    -4.871000000     1.212000000
H    -0.752000000    -3.438000000     1.640000000
O     2.159000000     4.849000000     0.615000000
H     1.747000000     4.949000000     1.473000000
H     2.338000000     3.912000000     0.543000000
O    -3.459000000     4.458000000    -4.933000000
H    -3.819000000     3.572000000    -4.967000000
H    -3.336000000     4.631000000    -3.999000000
O    -3.682000000     6.311000000    -2.819000000
H    -4.139000000     7.113000000    -3.071000000
H    -4.100000000     6.043000000    -2.001000000
O     1.468000000    -4.598000000     6.945000000
H     1.341000000    -5.436000000     7.388000000
H     0.814000000    -4.594000000     6.246000000
O     1.068000000     7.204000000     0.246000000
H     1.419000000     6.333000000     0.431000000
H     0.123000000     7.112000000     0.367000000
O    -0.631000000    -1.221000000    -4.779000000
H    -0.323000000    -2.125000000    -4.839000000
H     0.068000000    -0.703000000    -5.178000000
O    -1.214000000     1.502000000    -6.296000000
H    -1.931000000     1.407000000    -5.669000000
H    -1.327000000     0.771000000    -6.902000000
