158
-3039.24112
C     1.437000000     0.125000000    -0.333000000
H     2.436000000     0.334000000    -0.708000000
C     0.324000000     0.763000000    -0.985000000
H     0.505000000     1.356000000    -1.878000000
C    -0.978000000     0.504000000    -0.563000000
H    -1.782000000     1.076000000    -0.984000000
C    -1.221000000    -0.286000000     0.522000000
H    -2.199000000    -0.341000000     0.994000000
C    -0.105000000    -0.840000000     1.201000000
H    -0.328000000    -1.355000000     2.132000000
C     1.213000000    -0.761000000     0.722000000
C     2.397000000    -1.501000000     1.436000000
O     2.257000000    -2.136000000     2.499000000
O     3.456000000    -1.508000000     0.837000000
O     4.835000000     1.777000000     2.936000000
H     4.948000000     1.214000000     3.702000000
H     5.720000000     2.068000000     2.720000000
O     3.017000000     3.766000000     2.463000000
H     3.655000000     3.062000000     2.581000000
H     2.398000000     3.423000000     1.819000000
O     7.238000000    -3.379000000     3.054000000
H     6.639000000    -2.648000000     3.207000000
H     7.038000000    -4.003000000     3.752000000
O     0.975000000     2.693000000     0.855000000
H     0.408000000     1.956000000     0.628000000
H     0.821000000     3.336000000     0.162000000
O     1.334000000     4.358000000    -3.058000000
H     1.711000000     4.966000000    -3.694000000
H     2.084000000     3.860000000    -2.730000000
O    -2.824000000    -5.535000000     0.677000000
H    -2.347000000    -6.076000000     0.048000000
H    -2.255000000    -5.505000000     1.446000000
O     6.107000000    -4.488000000    -1.216000000
H     5.565000000    -4.273000000    -0.458000000
H     7.003000000    -4.490000000    -0.878000000
O    -7.161000000     3.399000000    -3.310000000
H    -6.566000000     4.148000000    -3.343000000
H    -6.611000000     2.668000000    -3.029000000
O     6.695000000     0.250000000    -2.038000000
H     5.815000000     0.261000000    -2.415000000
H     6.604000000    -0.256000000    -1.231000000
O     4.225000000    -0.010000000    -3.316000000
H     3.580000000     0.272000000    -3.965000000
H     4.068000000    -0.949000000    -3.214000000
O    -1.185000000     3.388000000     2.549000000
H    -1.015000000     3.897000000     1.756000000
H    -1.649000000     2.610000000     2.239000000
O    -7.314000000     0.251000000    -4.597000000
H    -6.520000000     0.248000000    -5.131000000
H    -7.043000000     0.643000000    -3.767000000
O    -5.930000000     3.902000000     0.162000000
H    -5.008000000     4.048000000    -0.047000000
H    -6.358000000     4.731000000    -0.054000000
O    -2.628000000     0.713000000     3.429000000
H    -2.511000000    -0.232000000     3.529000000
H    -2.162000000     1.092000000     4.174000000
O    -0.458000000     0.096000000    -4.976000000
H     0.439000000     0.322000000    -5.224000000
H    -0.361000000    -0.642000000    -4.374000000
O    -1.082000000     3.789000000    -2.384000000
H    -0.269000000     4.011000000    -2.839000000
H    -1.406000000     3.012000000    -2.840000000
O    -1.724000000    -4.934000000     3.146000000
H    -0.778000000    -4.790000000     3.166000000
H    -2.088000000    -4.204000000     3.647000000
O    -5.513000000     0.026000000     1.921000000
H    -5.356000000    -0.850000000     1.568000000
H    -5.343000000    -0.059000000     2.859000000
O     4.308000000    -4.098000000     0.870000000
H     3.850000000    -3.259000000     0.811000000
H     4.367000000    -4.273000000     1.809000000
O     1.443000000    -1.309000000     4.896000000
H     1.404000000    -1.575000000     3.977000000
H     1.615000000    -2.121000000     5.373000000
O     1.838000000    -6.752000000     4.453000000
H     1.272000000    -6.609000000     5.212000000
H     1.457000000    -6.207000000     3.764000000
O     5.944000000    -0.860000000     0.399000000
H     6.306000000    -1.225000000     1.206000000
H     5.008000000    -1.055000000     0.446000000
O    -4.713000000    -0.902000000    -5.402000000
H    -4.325000000    -0.727000000    -4.545000000
H    -4.088000000    -0.535000000    -6.028000000
O    -1.154000000     5.223000000    -0.260000000
H    -1.086000000     4.506000000    -0.891000000
H    -0.981000000     6.012000000    -0.774000000
O     5.137000000     0.251000000     5.435000000
H     4.513000000     0.141000000     6.153000000
H     5.966000000    -0.070000000     5.788000000
O     1.007000000    -4.682000000     2.827000000
H     1.361000000    -5.274000000     2.163000000
H     1.403000000    -3.834000000     2.627000000
O    -3.008000000    -1.406000000     6.020000000
H    -2.432000000    -1.423000000     6.784000000
H    -2.505000000    -1.841000000     5.331000000
O     4.968000000    -1.845000000     3.541000000
H     4.230000000    -1.738000000     2.942000000
H     5.014000000    -1.016000000     4.016000000
O    -1.887000000    -2.865000000    -2.525000000
H    -1.127000000    -2.287000000    -2.467000000
H    -1.629000000    -3.538000000    -3.154000000
O     4.009000000    -5.782000000     3.354000000
H     4.314000000    -6.342000000     2.640000000
H     3.210000000    -6.205000000     3.667000000
O    -5.763000000     1.211000000    -2.469000000
H    -5.664000000     1.890000000    -1.802000000
H    -5.419000000     0.419000000    -2.056000000
O    -2.290000000     1.822000000    -3.779000000
H    -1.624000000     1.289000000    -4.212000000
H    -2.871000000     1.186000000    -3.361000000
O    -3.669000000     1.979000000     0.688000000
H    -3.430000000     1.838000000     1.604000000
H    -4.305000000     1.289000000     0.498000000
O     3.636000000     2.463000000    -2.454000000
H     4.047000000     2.632000000    -1.606000000
H     3.945000000     1.592000000    -2.701000000
O     3.849000000    -2.627000000    -2.844000000
H     3.150000000    -3.281000000    -2.847000000
H     4.504000000    -2.978000000    -2.241000000
O     5.070000000     2.352000000    -0.044000000
H     4.374000000     1.885000000     0.418000000
H     5.856000000     2.188000000     0.478000000
O     4.044000000    -1.708000000     7.681000000
H     4.745000000    -2.103000000     8.200000000
H     4.076000000    -2.170000000     6.844000000
O    -5.163000000    -1.792000000    -0.605000000
H    -4.295000000    -2.099000000    -0.342000000
H    -5.771000000    -2.329000000    -0.096000000
O    -2.715000000    -2.246000000     3.199000000
H    -2.648000000    -2.403000000     2.257000000
H    -3.507000000    -2.713000000     3.464000000
O     1.042000000    -1.632000000    -3.019000000
H     1.875000000    -1.801000000    -3.460000000
H     1.170000000    -0.790000000    -2.581000000
O    -2.939000000    -2.865000000     0.408000000
H    -3.135000000    -3.788000000     0.568000000
H    -2.009000000    -2.854000000     0.180000000
O    -1.198000000     1.512000000     5.579000000
H    -0.439000000     1.019000000     5.892000000
H    -0.978000000     2.427000000     5.754000000
O    -3.811000000    -0.735000000    -2.508000000
H    -4.338000000    -1.055000000    -1.777000000
H    -3.211000000    -1.454000000    -2.705000000
O    -3.093000000     5.311000000    -4.044000000
H    -2.775000000     5.824000000    -3.301000000
H    -2.857000000     4.409000000    -3.831000000
O     2.409000000    -3.842000000     5.429000000
H     3.024000000    -3.820000000     4.695000000
H     1.883000000    -4.627000000     5.276000000
O     2.221000000     0.659000000    -5.141000000
H     2.628000000     0.152000000    -5.843000000
H     2.379000000     1.572000000    -5.382000000
O    -3.717000000     6.027000000     0.395000000
H    -3.994000000     5.912000000     1.304000000
H    -2.837000000     5.651000000     0.364000000
O     1.339000000     0.776000000     6.610000000
H     1.316000000     0.220000000     7.389000000
H     1.398000000     0.161000000     5.879000000
