158
-3018.97316
C     1.121000000    -0.738000000    -0.612000000
H     1.905000000    -1.110000000    -1.266000000
C    -0.017000000    -0.231000000    -1.303000000
H    -0.028000000    -0.359000000    -2.383000000
C    -0.971000000     0.403000000    -0.570000000
H    -1.936000000     0.754000000    -1.023000000
C    -0.839000000     0.523000000     0.809000000
H    -1.675000000     0.938000000     1.365000000
C     0.282000000     0.072000000     1.491000000
H     0.327000000     0.198000000     2.569000000
C     1.290000000    -0.515000000     0.719000000
C     2.560000000    -0.914000000     1.349000000
O     2.725000000    -0.488000000     2.442000000
O     3.324000000    -1.789000000     0.931000000
O     4.731000000     0.106000000     6.396000000
H     4.386000000    -0.786000000     6.349000000
H     5.386000000     0.073000000     7.092000000
O     2.752000000     2.362000000     2.646000000
H     2.857000000     1.423000000     2.802000000
H     3.470000000     2.588000000     2.056000000
O     7.129000000    -3.474000000     3.708000000
H     6.353000000    -3.161000000     3.243000000
H     7.410000000    -2.726000000     4.235000000
O     1.513000000     3.864000000    -0.298000000
H     1.229000000     4.472000000    -0.982000000
H     0.729000000     3.357000000    -0.088000000
O    -6.025000000     3.113000000    -5.102000000
H    -5.763000000     3.984000000    -4.807000000
H    -5.792000000     2.533000000    -4.377000000
O     0.990000000     2.192000000    -2.956000000
H     1.323000000     1.301000000    -3.064000000
H     1.764000000     2.711000000    -2.735000000
O     6.039000000    -5.309000000    -1.539000000
H     6.022000000    -6.239000000    -1.313000000
H     5.414000000    -4.905000000    -0.937000000
O    -3.909000000     2.281000000    -6.907000000
H    -4.335000000     2.446000000    -6.066000000
H    -3.001000000     2.082000000    -6.680000000
O     7.316000000     0.316000000    -1.763000000
H     6.421000000     0.165000000    -1.459000000
H     7.837000000     0.359000000    -0.961000000
O     2.073000000    -0.147000000    -3.799000000
H     2.395000000     0.169000000    -4.643000000
H     2.825000000    -0.591000000    -3.406000000
O    -1.409000000     1.327000000     4.821000000
H    -1.455000000     0.397000000     4.599000000
H    -0.848000000     1.360000000     5.596000000
O    -5.319000000     2.227000000    -2.435000000
H    -4.577000000     1.766000000    -2.826000000
H    -5.146000000     2.205000000    -1.494000000
O    -4.130000000    -0.523000000     2.396000000
H    -4.049000000     0.187000000     1.759000000
H    -4.684000000    -1.172000000     1.962000000
O    -0.562000000    -0.158000000    -4.659000000
H     0.342000000    -0.152000000    -4.345000000
H    -0.776000000    -1.086000000    -4.753000000
O    -1.218000000     3.250000000    -4.128000000
H    -0.390000000     3.096000000    -3.673000000
H    -1.112000000     2.814000000    -4.973000000
O    -4.880000000     3.415000000     1.016000000
H    -3.953000000     3.650000000     1.063000000
H    -5.064000000     3.000000000     1.858000000
O     4.277000000    -4.501000000     0.276000000
H     3.986000000    -3.609000000     0.462000000
H     4.450000000    -4.881000000     1.138000000
O     1.207000000    -1.322000000     4.400000000
H     1.798000000    -0.912000000     3.769000000
H     1.436000000    -2.252000000     4.373000000
O     2.263000000    -4.469000000     4.448000000
H     1.576000000    -4.937000000     4.923000000
H     1.960000000    -4.456000000     3.540000000
O     4.889000000    -0.464000000    -0.899000000
H     4.799000000    -0.990000000    -1.694000000
H     4.539000000    -1.021000000    -0.203000000
O    -6.163000000    -2.925000000    -2.365000000
H    -6.931000000    -2.521000000    -1.961000000
H    -5.427000000    -2.389000000    -2.068000000
O    -4.015000000    -1.107000000    -6.237000000
H    -3.328000000    -0.491000000    -5.982000000
H    -3.553000000    -1.801000000    -6.707000000
O    -1.114000000     5.412000000    -0.850000000
H    -0.225000000     5.700000000    -1.056000000
H    -1.583000000     5.466000000    -1.683000000
O     1.033000000    -6.507000000     1.088000000
H     1.484000000    -5.826000000     0.589000000
H     0.802000000    -7.168000000     0.436000000
O     3.650000000    -3.932000000    -3.695000000
H     3.362000000    -4.402000000    -4.478000000
H     3.529000000    -4.559000000    -2.981000000
O    -7.396000000     3.226000000     0.498000000
H    -7.578000000     3.904000000    -0.153000000
H    -6.441000000     3.194000000     0.549000000
O     1.653000000    -3.879000000     1.948000000
H     1.102000000    -3.901000000     1.165000000
H     2.366000000    -3.282000000     1.722000000
O    -3.992000000     2.647000000     5.599000000
H    -3.591000000     3.513000000     5.533000000
H    -3.389000000     2.068000000     5.134000000
O    -5.579000000    -2.551000000     1.582000000
H    -6.438000000    -2.594000000     2.003000000
H    -5.172000000    -3.393000000     1.783000000
O     5.070000000    -2.014000000     2.869000000
H     4.257000000    -1.927000000     2.371000000
H     5.356000000    -1.113000000     3.019000000
O    -2.273000000     4.107000000     1.450000000
H    -1.963000000     4.142000000     0.546000000
H    -1.484000000     3.949000000     1.969000000
O     0.144000000     3.085000000     2.615000000
H     1.065000000     2.826000000     2.598000000
H    -0.187000000     2.740000000     3.444000000
O    -1.357000000    -3.029000000    -4.020000000
H    -0.562000000    -3.493000000    -4.285000000
H    -1.979000000    -3.197000000    -4.728000000
O    -7.585000000     0.897000000    -3.456000000
H    -6.933000000     1.476000000    -3.061000000
H    -7.639000000     0.153000000    -2.857000000
O    -3.387000000     1.323000000    -4.086000000
H    -2.568000000     1.792000000    -3.927000000
H    -3.240000000     0.453000000    -3.714000000
O     5.032000000     2.354000000     0.759000000
H     5.903000000     2.726000000     0.620000000
H     5.023000000     1.559000000     0.224000000
O     4.574000000    -1.415000000    -3.531000000
H     4.223000000    -2.305000000    -3.572000000
H     5.273000000    -1.403000000    -4.185000000
O    -3.675000000    -1.654000000    -0.425000000
H    -4.121000000    -2.434000000    -0.096000000
H    -2.895000000    -1.574000000     0.125000000
O    -2.636000000    -2.660000000     5.118000000
H    -2.141000000    -2.612000000     4.300000000
H    -3.389000000    -3.212000000     4.909000000
O     0.497000000    -3.874000000    -0.772000000
H     1.158000000    -4.113000000    -1.421000000
H     0.162000000    -3.029000000    -1.071000000
O    -1.590000000    -2.309000000     2.324000000
H    -0.852000000    -1.851000000     2.726000000
H    -2.340000000    -1.734000000     2.476000000
O     0.008000000    -0.326000000     6.482000000
H     0.446000000    -0.727000000     5.731000000
H     0.548000000    -0.572000000     7.233000000
O    -3.190000000    -1.199000000    -2.974000000
H    -3.365000000    -1.231000000    -2.034000000
H    -2.483000000    -1.830000000    -3.108000000
O     5.882000000     0.336000000     3.893000000
H     5.283000000     0.382000000     4.638000000
H     6.754000000     0.320000000     4.287000000
O    -2.678000000     5.361000000    -3.206000000
H    -3.571000000     5.163000000    -3.487000000
H    -2.131000000     4.748000000    -3.697000000
O     3.973000000    -2.387000000     5.448000000
H     4.694000000    -2.194000000     4.848000000
H     3.459000000    -3.057000000     4.998000000
O    -5.232000000     6.460000000    -0.004000000
H    -4.507000000     5.871000000     0.199000000
H    -4.840000000     7.145000000    -0.546000000
O    -1.312000000     1.572000000    -6.578000000
H    -1.049000000     0.825000000    -6.041000000
H    -0.618000000     1.653000000    -7.233000000
