158
-3052.70415
C     0.382000000    -1.099000000    -0.927000000
H     0.487000000    -1.796000000    -1.754000000
C    -0.696000000    -0.248000000    -1.112000000
H    -1.432000000    -0.393000000    -1.899000000
C    -0.997000000     0.694000000    -0.175000000
H    -1.964000000     1.294000000    -0.109000000
C    -0.099000000     0.929000000     0.918000000
H    -0.258000000     1.713000000     1.653000000
C     1.061000000     0.103000000     1.026000000
H     1.787000000     0.334000000     1.801000000
C     1.258000000    -0.999000000     0.163000000
C     2.477000000    -1.841000000     0.363000000
O     3.179000000    -1.583000000     1.309000000
O     2.768000000    -2.785000000    -0.349000000
O     6.815000000     1.597000000     3.481000000
H     6.035000000     1.084000000     3.269000000
H     6.956000000     2.148000000     2.711000000
O     2.030000000     2.879000000    -0.627000000
H     1.974000000     2.508000000    -1.507000000
H     1.747000000     2.171000000    -0.049000000
O     0.696000000    -0.054000000    -4.752000000
H     0.425000000    -0.970000000    -4.698000000
H     1.608000000    -0.056000000    -4.462000000
O    -0.453000000    -5.530000000    -2.448000000
H    -0.836000000    -5.298000000    -3.295000000
H     0.064000000    -6.316000000    -2.627000000
O     2.793000000    -7.649000000    -0.876000000
H     3.687000000    -7.642000000    -1.220000000
H     2.760000000    -6.901000000    -0.280000000
O    -4.085000000    -0.071000000    -5.997000000
H    -3.889000000    -0.384000000    -5.114000000
H    -4.655000000     0.686000000    -5.862000000
O     3.397000000    -0.465000000    -3.759000000
H     4.206000000    -0.179000000    -3.337000000
H     3.413000000    -1.420000000    -3.687000000
O     7.626000000    -2.025000000     2.699000000
H     7.071000000    -1.360000000     3.107000000
H     7.116000000    -2.832000000     2.759000000
O     0.513000000    -2.785000000    -4.976000000
H     0.861000000    -2.459000000    -5.806000000
H     0.890000000    -3.660000000    -4.885000000
O     2.020000000     1.190000000     5.102000000
H     2.565000000     0.455000000     4.823000000
H     1.672000000     0.921000000     5.953000000
O    -4.127000000     2.019000000    -2.544000000
H    -4.138000000     1.063000000    -2.515000000
H    -3.510000000     2.230000000    -3.245000000
O    -4.326000000     0.059000000     0.811000000
H    -4.067000000     0.780000000     1.385000000
H    -5.184000000     0.317000000     0.475000000
O    -2.131000000    -2.058000000    -4.395000000
H    -1.191000000    -2.200000000    -4.509000000
H    -2.538000000    -2.833000000    -4.782000000
O    -0.749000000     1.251000000    -6.605000000
H    -0.069000000     0.956000000    -6.000000000
H    -0.273000000     1.713000000    -7.295000000
O    -1.960000000     4.023000000     0.610000000
H    -1.073000000     4.382000000     0.625000000
H    -2.026000000     3.512000000     1.417000000
O     3.319000000    -5.385000000     0.648000000
H     3.231000000    -4.487000000     0.329000000
H     4.181000000    -5.408000000     1.065000000
O     1.273000000    -3.073000000     4.016000000
H     0.606000000    -2.695000000     3.443000000
H     1.285000000    -4.003000000     3.789000000
O     1.815000000    -5.414000000     3.025000000
H     0.990000000    -5.872000000     2.864000000
H     2.304000000    -5.509000000     2.208000000
O     3.765000000    -2.915000000    -2.775000000
H     3.406000000    -3.798000000    -2.868000000
H     3.398000000    -2.593000000    -1.952000000
O     2.078000000     1.957000000    -3.142000000
H     1.426000000     1.299000000    -3.385000000
H     2.914000000     1.493000000    -3.187000000
O     5.465000000    -2.742000000     0.268000000
H     4.524000000    -2.576000000     0.205000000
H     5.624000000    -2.861000000     1.204000000
O    -6.429000000     2.439000000     1.608000000
H    -6.379000000     2.809000000     2.489000000
H    -5.663000000     2.793000000     1.156000000
O    -0.758000000     3.205000000     3.555000000
H    -1.368000000     2.677000000     3.039000000
H    -1.226000000     3.382000000     4.371000000
O    -6.719000000     1.807000000    -3.109000000
H    -6.950000000     1.133000000    -2.470000000
H    -5.789000000     1.974000000    -2.956000000
O    -0.149000000    -4.007000000    -0.290000000
H    -0.104000000    -4.557000000    -1.072000000
H     0.764000000    -3.818000000    -0.076000000
O    -2.335000000     0.308000000     5.130000000
H    -2.018000000     0.691000000     5.947000000
H    -1.766000000    -0.448000000     4.983000000
O    -4.447000000    -2.024000000     2.524000000
H    -4.205000000    -1.295000000     1.953000000
H    -5.388000000    -2.134000000     2.385000000
O     5.342000000    -3.478000000     2.978000000
H     4.663000000    -2.804000000     2.983000000
H     5.044000000    -4.123000000     3.620000000
O     0.896000000     4.319000000     1.281000000
H     1.434000000     3.853000000     0.642000000
H     1.272000000     4.082000000     2.129000000
O    -4.394000000     6.088000000    -0.063000000
H    -4.580000000     5.150000000    -0.039000000
H    -3.465000000     6.154000000     0.161000000
O     2.090000000     3.595000000     3.757000000
H     2.240000000     2.755000000     4.191000000
H     1.143000000     3.631000000     3.625000000
O    -2.640000000    -5.430000000    -0.673000000
H    -1.763000000    -5.679000000    -0.964000000
H    -2.526000000    -4.563000000    -0.283000000
O     1.038000000     6.587000000    -0.560000000
H     0.658000000     7.235000000     0.034000000
H     1.167000000     5.810000000    -0.016000000
O     6.011000000    -5.156000000    -1.144000000
H     5.471000000    -4.369000000    -1.082000000
H     6.911000000    -4.832000000    -1.117000000
O    -4.056000000    -0.800000000    -3.004000000
H    -3.291000000    -1.244000000    -3.368000000
H    -4.700000000    -1.497000000    -2.878000000
O    -3.036000000     1.899000000     2.729000000
H    -3.007000000     1.283000000     3.461000000
H    -3.749000000     2.499000000     2.949000000
O    -1.059000000     6.343000000     2.949000000
H    -0.869000000     5.408000000     3.029000000
H    -2.013000000     6.399000000     3.005000000
O     5.193000000     0.157000000    -1.446000000
H     5.629000000     0.124000000    -0.595000000
H     5.777000000    -0.324000000    -2.033000000
O     7.457000000     0.469000000     0.444000000
H     7.314000000    -0.262000000     1.046000000
H     8.126000000     1.004000000     0.873000000
O    -3.273000000    -2.357000000    -0.679000000
H    -2.437000000    -1.984000000    -0.961000000
H    -3.741000000    -1.622000000    -0.283000000
O    -0.661000000    -2.677000000     2.051000000
H    -0.765000000    -3.235000000     1.280000000
H    -0.902000000    -1.802000000     1.747000000
O     3.030000000    -1.215000000     4.871000000
H     2.669000000    -1.971000000     4.407000000
H     3.542000000    -1.595000000     5.585000000
O    -5.177000000    -4.028000000    -1.720000000
H    -4.444000000    -3.485000000    -1.430000000
H    -4.863000000    -4.927000000    -1.625000000
O     4.769000000    -0.464000000     2.997000000
H     4.275000000    -0.732000000     2.222000000
H     4.117000000    -0.430000000     3.697000000
O    -2.750000000     5.097000000    -3.688000000
H    -3.662000000     4.959000000    -3.430000000
H    -2.439000000     4.228000000    -3.940000000
O    -2.511000000     2.388000000    -4.799000000
H    -1.782000000     1.854000000    -5.116000000
H    -2.617000000     3.067000000    -5.464000000
O     7.728000000    -2.789000000    -1.077000000
H     8.295000000    -3.435000000    -0.656000000
H     6.913000000    -2.822000000    -0.575000000
O    -4.360000000     3.363000000    -0.081000000
H    -3.483000000     3.588000000     0.229000000
H    -4.211000000     2.918000000    -0.915000000
