158
-3024.86228
C    -1.028000000    -0.917000000     0.438000000
H    -1.784000000    -1.674000000     0.630000000
C     0.216000000    -1.245000000    -0.141000000
H     0.595000000    -2.247000000    -0.330000000
C     1.051000000    -0.243000000    -0.521000000
H     1.977000000    -0.489000000    -1.013000000
C     0.688000000     1.067000000    -0.490000000
H     1.429000000     1.834000000    -0.699000000
C    -0.506000000     1.408000000     0.195000000
H    -0.785000000     2.448000000     0.346000000
C    -1.352000000     0.405000000     0.673000000
C    -2.573000000     0.675000000     1.522000000
O    -2.996000000     1.852000000     1.630000000
O    -3.130000000    -0.165000000     2.190000000
O    -7.801000000     1.547000000     1.463000000
H    -7.118000000     1.703000000     2.116000000
H    -7.835000000     0.594000000     1.375000000
O     2.174000000     4.736000000    -2.635000000
H     2.627000000     5.566000000    -2.780000000
H     2.840000000     4.068000000    -2.799000000
O    -3.341000000    -6.654000000    -0.708000000
H    -3.414000000    -5.758000000    -0.379000000
H    -2.935000000    -6.560000000    -1.570000000
O    -1.530000000    -0.463000000    -2.910000000
H    -1.129000000     0.165000000    -2.309000000
H    -2.020000000     0.078000000    -3.530000000
O     5.824000000     1.819000000    -1.309000000
H     6.382000000     1.181000000    -0.864000000
H     5.651000000     2.489000000    -0.648000000
O    -2.011000000    -1.896000000     6.274000000
H    -2.251000000    -1.193000000     5.671000000
H    -2.144000000    -2.699000000     5.770000000
O    -4.079000000     3.218000000    -0.321000000
H    -3.486000000     2.701000000     0.223000000
H    -3.517000000     3.875000000    -0.732000000
O    -4.419000000    -3.571000000     5.303000000
H    -5.184000000    -3.339000000     5.830000000
H    -3.937000000    -4.196000000     5.843000000
O     3.799000000     2.539000000     2.854000000
H     3.465000000     3.156000000     3.505000000
H     3.157000000     1.830000000     2.845000000
O    -7.746000000    -1.439000000     1.755000000
H    -8.176000000    -2.066000000     1.173000000
H    -8.016000000    -1.704000000     2.634000000
O     6.842000000    -0.036000000     0.754000000
H     7.785000000    -0.202000000     0.777000000
H     6.656000000     0.409000000     1.581000000
O     6.373000000     1.791000000     2.867000000
H     5.493000000     2.121000000     2.687000000
H     6.957000000     2.464000000     2.517000000
O    -1.706000000    -2.905000000    -2.324000000
H    -1.600000000    -1.954000000    -2.349000000
H    -2.332000000    -3.057000000    -1.616000000
O    -7.227000000     0.462000000     5.029000000
H    -7.931000000     0.547000000     4.386000000
H    -6.436000000     0.715000000     4.552000000
O     0.675000000     2.614000000     3.711000000
H     1.029000000     1.814000000     3.322000000
H     0.758000000     2.477000000     4.655000000
O    -4.686000000    -1.241000000    -2.789000000
H    -5.204000000    -0.764000000    -2.141000000
H    -3.785000000    -1.173000000    -2.473000000
O    -5.395000000     1.096000000     3.227000000
H    -5.039000000     1.937000000     3.516000000
H    -4.654000000     0.650000000     2.818000000
O     5.332000000    -6.086000000    -3.222000000
H     4.687000000    -6.793000000    -3.256000000
H     4.841000000    -5.330000000    -2.901000000
O     3.910000000    -3.722000000    -2.350000000
H     3.576000000    -3.026000000    -2.916000000
H     4.395000000    -3.262000000    -1.665000000
O    -5.970000000     6.261000000     0.278000000
H    -6.627000000     6.591000000     0.890000000
H    -5.519000000     5.569000000     0.762000000
O    -1.685000000     3.762000000     2.718000000
H    -0.945000000     3.238000000     3.027000000
H    -2.220000000     3.149000000     2.214000000
O     5.318000000     3.774000000     0.744000000
H     4.730000000     3.586000000     1.476000000
H     4.987000000     4.593000000     0.375000000
O     1.817000000    -4.606000000     3.227000000
H     1.974000000    -3.809000000     3.733000000
H     0.954000000    -4.474000000     2.834000000
O    -5.174000000     1.653000000    -2.274000000
H    -5.869000000     1.094000000    -1.926000000
H    -4.806000000     2.085000000    -1.504000000
O     1.870000000     5.574000000     0.984000000
H     2.588000000     5.253000000     0.438000000
H     2.194000000     5.489000000     1.880000000
O     0.658000000    -1.242000000    -4.317000000
H     0.314000000    -1.000000000    -5.177000000
H    -0.048000000    -1.025000000    -3.708000000
O     1.397000000     4.220000000    -5.623000000
H     2.111000000     4.833000000    -5.800000000
H     1.361000000     4.164000000    -4.668000000
O    -3.938000000     3.066000000     4.298000000
H    -3.016000000     3.034000000     4.042000000
H    -3.959000000     3.668000000     5.042000000
O    -3.111000000    -2.697000000     2.748000000
H    -3.617000000    -2.811000000     3.553000000
H    -3.197000000    -1.767000000     2.541000000
O    -2.396000000     0.142000000     4.740000000
H    -2.731000000     0.095000000     3.844000000
H    -2.978000000     0.759000000     5.182000000
O    -1.547000000    -3.616000000    -5.126000000
H    -1.845000000    -4.524000000    -5.075000000
H    -1.561000000    -3.308000000    -4.220000000
O     5.446000000     1.150000000    -3.853000000
H     5.543000000     1.488000000    -2.963000000
H     6.301000000     0.773000000    -4.061000000
O     3.280000000    -1.752000000    -4.329000000
H     3.721000000    -1.282000000    -5.037000000
H     2.473000000    -1.258000000    -4.180000000
O     4.486000000    -2.215000000     2.460000000
H     4.437000000    -2.097000000     1.512000000
H     5.396000000    -2.018000000     2.680000000
O     2.145000000    -4.324000000    -5.358000000
H     1.952000000    -3.482000000    -4.947000000
H     3.097000000    -4.325000000    -5.465000000
O    -0.580000000    -3.791000000     2.020000000
H    -0.920000000    -3.431000000     1.200000000
H    -1.301000000    -3.696000000     2.641000000
O    -0.277000000    -5.176000000    -1.801000000
H    -0.611000000    -5.804000000    -2.441000000
H    -0.420000000    -4.321000000    -2.207000000
O    -5.398000000    -0.664000000    -0.155000000
H    -6.032000000    -1.018000000     0.468000000
H    -4.707000000    -0.291000000     0.392000000
O    -5.687000000     4.027000000     1.849000000
H    -5.107000000     3.753000000     1.139000000
H    -5.200000000     3.827000000     2.648000000
O     2.456000000    -2.133000000     4.321000000
H     2.943000000    -2.110000000     3.496000000
H     3.112000000    -1.941000000     4.991000000
O     0.640000000     7.280000000    -1.618000000
H     1.039000000     7.795000000    -0.917000000
H     0.772000000     6.370000000    -1.351000000
O    -0.742000000     5.961000000     1.525000000
H    -1.128000000     5.121000000     1.772000000
H     0.193000000     5.778000000     1.436000000
O    -1.866000000     6.068000000     4.534000000
H    -1.504000000     5.937000000     3.658000000
H    -1.247000000     5.630000000     5.118000000
O    -2.566000000     5.510000000    -1.248000000
H    -1.738000000     5.943000000    -1.042000000
H    -2.512000000     5.321000000    -2.185000000
O     1.817000000     0.142000000     2.683000000
H     1.795000000    -0.644000000     3.229000000
H     1.377000000    -0.117000000     1.873000000
O    -3.273000000    -3.597000000     0.190000000
H    -4.179000000    -3.728000000    -0.091000000
H    -3.340000000    -3.383000000     1.121000000
O     2.292000000    -5.854000000    -1.880000000
H     1.429000000    -5.442000000    -1.831000000
H     2.899000000    -5.124000000    -2.004000000
O    -1.890000000     2.521000000     6.531000000
H    -2.784000000     2.246000000     6.736000000
H    -1.527000000     1.795000000     6.024000000
