158
-3035.90461
C     0.513000000     0.925000000    -0.966000000
H     0.872000000     1.683000000    -1.658000000
C    -0.755000000     0.973000000    -0.483000000
H    -1.399000000     1.803000000    -0.760000000
C    -1.132000000     0.036000000     0.448000000
H    -2.101000000    -0.005000000     0.959000000
C    -0.246000000    -0.936000000     0.927000000
H    -0.599000000    -1.644000000     1.673000000
C     1.030000000    -0.996000000     0.356000000
H     1.647000000    -1.823000000     0.698000000
C     1.419000000    -0.066000000    -0.618000000
C     2.865000000    -0.024000000    -1.118000000
O     3.608000000    -0.966000000    -0.882000000
O     3.166000000     0.741000000    -2.085000000
O     7.158000000     1.807000000    -0.760000000
H     7.400000000     2.634000000    -0.342000000
H     7.705000000     1.766000000    -1.544000000
O     5.899000000    -5.153000000     0.832000000
H     5.241000000    -4.473000000     0.977000000
H     6.020000000    -5.171000000    -0.117000000
O     8.042000000    -1.996000000    -0.768000000
H     7.533000000    -2.119000000    -1.570000000
H     7.385000000    -1.855000000    -0.087000000
O     1.603000000     5.632000000    -1.164000000
H     1.984000000     4.935000000    -0.631000000
H     1.615000000     5.285000000    -2.056000000
O     2.724000000    -4.385000000     0.236000000
H     3.012000000    -3.904000000    -0.540000000
H     2.571000000    -3.707000000     0.895000000
O    -2.388000000    -4.022000000     1.970000000
H    -1.844000000    -4.037000000     2.757000000
H    -3.038000000    -3.341000000     2.141000000
O     3.537000000     2.301000000    -6.274000000
H     3.299000000     1.585000000    -5.685000000
H     2.786000000     2.388000000    -6.861000000
O    -1.164000000     4.681000000    -1.238000000
H    -0.780000000     4.844000000    -0.376000000
H    -2.105000000     4.789000000    -1.105000000
O     4.195000000    -1.958000000    -5.378000000
H     3.292000000    -2.276000000    -5.403000000
H     4.117000000    -1.037000000    -5.127000000
O     2.631000000     3.360000000    -2.882000000
H     2.768000000     2.515000000    -2.455000000
H     3.416000000     3.865000000    -2.672000000
O    -0.565000000    -4.468000000    -3.172000000
H    -0.202000000    -3.583000000    -3.119000000
H    -0.114000000    -4.953000000    -2.481000000
O    -3.108000000     0.721000000    -3.697000000
H    -2.524000000     1.438000000    -3.452000000
H    -2.743000000     0.383000000    -4.515000000
O    -5.383000000     1.024000000    -1.725000000
H    -4.594000000     0.909000000    -2.255000000
H    -6.093000000     0.700000000    -2.279000000
O    -2.947000000    -2.991000000    -2.818000000
H    -2.804000000    -3.736000000    -2.235000000
H    -2.087000000    -2.815000000    -3.198000000
O    -2.659000000    -4.787000000    -0.578000000
H    -1.735000000    -5.035000000    -0.583000000
H    -2.792000000    -4.376000000     0.277000000
O    -3.705000000     3.637000000     1.593000000
H    -3.847000000     2.694000000     1.671000000
H    -4.005000000     3.853000000     0.710000000
O     2.574000000    -6.403000000     2.163000000
H     2.584000000    -7.194000000     1.624000000
H     2.878000000    -5.710000000     1.577000000
O     5.349000000     0.621000000     0.533000000
H     4.844000000     0.288000000    -0.209000000
H     6.059000000     1.125000000     0.133000000
O    -4.401000000    -2.010000000     4.103000000
H    -4.661000000    -1.398000000     4.792000000
H    -5.125000000    -1.988000000     3.477000000
O    -4.263000000     3.805000000    -3.390000000
H    -5.039000000     3.302000000    -3.638000000
H    -3.790000000     3.936000000    -4.212000000
O     5.649000000     0.036000000    -2.949000000
H     5.911000000     0.883000000    -3.311000000
H     4.758000000     0.178000000    -2.630000000
O    -7.565000000     1.462000000     1.824000000
H    -6.865000000     0.983000000     1.381000000
H    -7.407000000     1.310000000     2.756000000
O    -3.903000000     5.253000000    -0.867000000
H    -4.099000000     4.934000000    -1.748000000
H    -4.408000000     6.062000000    -0.787000000
O     2.881000000    -2.865000000     2.954000000
H     2.257000000    -2.250000000     3.342000000
H     2.842000000    -3.635000000     3.522000000
O     1.484000000     1.097000000     2.760000000
H     0.823000000     1.233000000     2.081000000
H     1.485000000     0.151000000     2.907000000
O    -5.000000000     0.305000000     0.903000000
H    -4.830000000    -0.632000000     1.002000000
H    -5.052000000     0.440000000    -0.043000000
O    -1.981000000     0.553000000     5.074000000
H    -2.596000000     0.906000000     4.432000000
H    -1.631000000    -0.237000000     4.662000000
O    -0.842000000     2.791000000    -3.314000000
H    -1.009000000     3.515000000    -2.711000000
H    -0.223000000     3.146000000    -3.951000000
O    -2.474000000     4.089000000     4.356000000
H    -3.400000000     4.156000000     4.587000000
H    -2.465000000     3.564000000     3.555000000
O    -0.731000000    -4.828000000     4.356000000
H    -0.747000000    -4.994000000     5.299000000
H    -0.507000000    -5.674000000     3.968000000
O     3.813000000    -3.251000000    -2.031000000
H     3.599000000    -2.418000000    -1.612000000
H     4.763000000    -3.225000000    -2.144000000
O     0.673000000    -2.028000000    -2.998000000
H     0.408000000    -1.154000000    -3.286000000
H     1.497000000    -1.888000000    -2.532000000
O    -1.424000000    -2.224000000     4.448000000
H    -2.374000000    -2.233000000     4.565000000
H    -1.142000000    -3.099000000     4.714000000
O     1.089000000    -1.182000000     4.094000000
H     1.284000000    -1.511000000     4.971000000
H     0.135000000    -1.226000000     4.029000000
O     0.336000000    -5.486000000    -0.703000000
H     0.295000000    -6.183000000    -0.049000000
H     1.021000000    -4.898000000    -0.383000000
O    -1.465000000     6.729000000    -3.134000000
H    -1.300000000     6.026000000    -2.506000000
H    -2.419000000     6.779000000    -3.192000000
O     0.801000000     4.130000000     1.631000000
H    -0.121000000     4.234000000     1.866000000
H     1.266000000     4.145000000     2.468000000
O    -4.181000000     1.395000000     3.436000000
H    -4.321000000     0.889000000     2.636000000
H    -5.059000000     1.664000000     3.706000000
O     0.446000000     4.310000000    -4.873000000
H     0.707000000     4.227000000    -5.790000000
H     1.231000000     4.631000000    -4.429000000
O     4.245000000     0.866000000     2.836000000
H     3.318000000     0.903000000     2.603000000
H     4.693000000     0.688000000     2.009000000
O     0.067000000     0.368000000    -4.187000000
H    -0.559000000     0.382000000    -4.910000000
H    -0.308000000     0.959000000    -3.534000000
O    -4.956000000    -2.532000000     1.140000000
H    -4.996000000    -2.805000000     0.224000000
H    -5.785000000    -2.830000000     1.515000000
O     0.467000000     1.558000000     5.848000000
H     0.176000000     2.468000000     5.906000000
H    -0.302000000     1.079000000     5.542000000
O    -5.464000000    -1.946000000    -3.111000000
H    -5.444000000    -0.992000000    -3.032000000
H    -4.609000000    -2.231000000    -2.788000000
O     4.846000000    -2.489000000     1.217000000
H     4.189000000    -2.490000000     1.912000000
H     4.524000000    -1.848000000     0.583000000
O    -2.324000000     6.331000000     1.324000000
H    -2.825000000     5.541000000     1.527000000
H    -2.913000000     7.052000000     1.548000000
O     2.813000000     0.459000000    -4.754000000
H     1.866000000     0.450000000    -4.617000000
H     3.182000000     0.511000000    -3.873000000
O     6.411000000    -2.505000000    -3.069000000
H     6.244000000    -2.824000000    -3.956000000
H     6.193000000    -1.573000000    -3.105000000
