158
-3009.64383
C     0.976000000     0.842000000    -0.683000000
H     1.681000000     1.600000000    -1.013000000
C    -0.356000000     1.165000000    -0.402000000
H    -0.615000000     2.201000000    -0.603000000
C    -1.237000000     0.211000000     0.093000000
H    -2.237000000     0.442000000     0.232000000
C    -0.720000000    -1.088000000     0.332000000
H    -1.434000000    -1.811000000     0.718000000
C     0.663000000    -1.390000000     0.158000000
H     1.041000000    -2.320000000     0.575000000
C     1.536000000    -0.361000000    -0.331000000
C     2.994000000    -0.596000000    -0.306000000
O     3.450000000    -1.290000000     0.557000000
O     3.678000000     0.137000000    -1.019000000
O     2.400000000     3.872000000     0.103000000
H     1.717000000     3.510000000     0.668000000
H     1.922000000     4.368000000    -0.562000000
O     7.100000000    -3.709000000     0.052000000
H     6.246000000    -3.652000000     0.479000000
H     7.136000000    -2.940000000    -0.518000000
O     6.726000000    -2.118000000     2.971000000
H     6.336000000    -2.981000000     2.833000000
H     6.569000000    -1.651000000     2.150000000
O    -4.613000000     4.420000000    -3.167000000
H    -5.049000000     4.864000000    -3.896000000
H    -3.904000000     3.925000000    -3.578000000
O     4.710000000     2.382000000    -0.238000000
H     3.867000000     2.811000000    -0.092000000
H     4.482000000     1.502000000    -0.538000000
O     1.957000000    -6.878000000    -1.177000000
H     1.013000000    -6.809000000    -1.317000000
H     2.229000000    -5.993000000    -0.934000000
O    -2.962000000    -3.807000000     1.925000000
H    -2.548000000    -3.379000000     2.674000000
H    -3.821000000    -4.078000000     2.249000000
O    -2.058000000     1.504000000    -4.074000000
H    -1.407000000     0.987000000    -3.599000000
H    -1.621000000     2.338000000    -4.247000000
O     4.361000000     4.040000000    -4.346000000
H     4.779000000     3.236000000    -4.039000000
H     3.433000000     3.921000000    -4.141000000
O     3.971000000    -3.569000000    -3.044000000
H     4.622000000    -2.947000000    -2.720000000
H     4.486000000    -4.309000000    -3.365000000
O     0.412000000     0.233000000    -5.812000000
H     0.386000000    -0.155000000    -4.937000000
H     0.394000000    -0.516000000    -6.408000000
O    -7.589000000    -0.534000000    -2.394000000
H    -6.989000000     0.181000000    -2.180000000
H    -7.206000000    -1.302000000    -1.971000000
O    -4.428000000     0.370000000    -5.011000000
H    -3.800000000     0.842000000    -4.464000000
H    -4.428000000    -0.521000000    -4.661000000
O    -4.026000000    -1.814000000    -3.444000000
H    -3.251000000    -2.320000000    -3.201000000
H    -4.587000000    -1.847000000    -2.670000000
O    -1.661000000    -2.784000000    -2.470000000
H    -1.275000000    -3.361000000    -3.129000000
H    -1.586000000    -3.272000000    -1.651000000
O    -6.239000000    -1.863000000     3.478000000
H    -6.794000000    -2.379000000     4.062000000
H    -6.369000000    -0.958000000     3.761000000
O    -3.347000000     2.801000000     3.234000000
H    -3.994000000     3.381000000     2.833000000
H    -3.825000000     1.989000000     3.402000000
O    -2.108000000    -5.276000000    -0.197000000
H    -1.198000000    -5.427000000     0.059000000
H    -2.440000000    -4.657000000     0.453000000
O     6.031000000    -0.326000000     0.845000000
H     5.100000000    -0.398000000     0.633000000
H     6.214000000     0.612000000     0.806000000
O    -5.553000000     1.682000000    -0.711000000
H    -5.510000000     0.929000000    -0.121000000
H    -4.651000000     1.996000000    -0.764000000
O    -1.378000000     4.393000000    -3.436000000
H    -1.767000000     4.647000000    -2.599000000
H    -1.292000000     5.215000000    -3.919000000
O     0.499000000    -5.360000000     1.379000000
H     0.669000000    -4.529000000     1.824000000
H     1.354000000    -5.788000000     1.336000000
O     0.919000000     0.177000000     3.013000000
H     0.181000000    -0.266000000     2.594000000
H     0.601000000     1.064000000     3.180000000
O    -5.062000000    -0.183000000     1.178000000
H    -4.761000000    -0.959000000     0.704000000
H    -5.423000000    -0.527000000     1.995000000
O     6.995000000     3.297000000     0.502000000
H     7.595000000     3.414000000    -0.234000000
H     6.163000000     3.053000000     0.096000000
O    -3.050000000     2.653000000    -1.310000000
H    -2.351000000     2.279000000    -1.847000000
H    -2.796000000     3.568000000    -1.190000000
O    -5.992000000     2.770000000     2.052000000
H    -5.944000000     2.057000000     1.415000000
H    -6.794000000     2.598000000     2.544000000
O    -0.379000000     2.593000000     3.646000000
H    -1.308000000     2.647000000     3.422000000
H    -0.047000000     3.479000000     3.504000000
O     2.700000000    -3.866000000    -0.637000000
H     3.135000000    -3.800000000    -1.487000000
H     3.060000000    -3.142000000    -0.126000000
O     0.678000000    -1.675000000     5.179000000
H     0.721000000    -0.909000000     4.607000000
H    -0.058000000    -1.496000000     5.764000000
O    -0.397000000    -0.289000000    -2.995000000
H    -0.879000000    -1.103000000    -3.139000000
H    -0.237000000    -0.267000000    -2.052000000
O     5.897000000     1.633000000     3.987000000
H     5.497000000     2.467000000     3.741000000
H     5.297000000     0.970000000     3.646000000
O    -6.983000000     3.963000000    -1.267000000
H    -6.364000000     4.635000000    -0.983000000
H    -6.572000000     3.136000000    -1.013000000
O    -2.353000000    -2.741000000     4.158000000
H    -1.844000000    -2.022000000     4.531000000
H    -1.923000000    -3.533000000     4.480000000
O     1.430000000    -3.282000000     3.078000000
H     1.117000000    -2.667000000     2.415000000
H     1.329000000    -2.813000000     3.906000000
O    -2.051000000     5.389000000    -1.076000000
H    -2.308000000     6.283000000    -0.853000000
H    -1.814000000     4.991000000    -0.239000000
O     7.786000000     0.431000000    -2.277000000
H     8.249000000     0.687000000    -3.075000000
H     8.435000000     0.536000000    -1.581000000
O     0.832000000     5.454000000    -1.517000000
H    -0.108000000     5.320000000    -1.639000000
H     1.181000000     5.533000000    -2.404000000
O     5.373000000     1.805000000    -3.177000000
H     4.878000000     0.999000000    -3.035000000
H     6.202000000     1.660000000    -2.721000000
O     3.723000000    -0.025000000     3.264000000
H     3.894000000    -0.542000000     2.477000000
H     2.831000000     0.301000000     3.148000000
O    -6.299000000    -2.683000000    -1.644000000
H    -6.602000000    -3.465000000    -2.104000000
H    -6.077000000    -2.993000000    -0.765000000
O     4.840000000    -3.418000000     1.440000000
H     4.311000000    -4.215000000     1.438000000
H     4.238000000    -2.730000000     1.154000000
O    -1.877000000     3.825000000     0.986000000
H    -1.172000000     3.515000000     1.554000000
H    -2.602000000     3.224000000     1.156000000
O     2.477000000    -2.317000000    -5.195000000
H     2.558000000    -1.387000000    -5.410000000
H     3.032000000    -2.433000000    -4.424000000
O    -6.826000000    -3.022000000     1.099000000
H    -7.756000000    -2.800000000     1.064000000
H    -6.498000000    -2.559000000     1.870000000
O     4.651000000     4.803000000     1.959000000
H     5.213000000     5.343000000     1.404000000
H     4.079000000     4.342000000     1.345000000
O     5.822000000    -1.621000000    -1.859000000
H     5.036000000    -1.228000000    -1.479000000
H     6.492000000    -0.943000000    -1.779000000
O     3.581000000     0.338000000    -5.869000000
H     4.026000000     0.502000000    -5.038000000
H     3.197000000     1.183000000    -6.105000000
