158
-3044.69743
C     0.204000000    -0.022000000     1.481000000
H     0.408000000     0.085000000     2.544000000
C    -0.798000000     0.722000000     0.852000000
H    -1.539000000     1.330000000     1.364000000
C    -0.966000000     0.569000000    -0.513000000
H    -1.775000000     1.155000000    -0.924000000
C    -0.072000000    -0.272000000    -1.233000000
H    -0.089000000    -0.289000000    -2.320000000
C     1.019000000    -0.795000000    -0.601000000
H     1.750000000    -1.331000000    -1.201000000
C     1.225000000    -0.666000000     0.755000000
C     2.384000000    -1.335000000     1.444000000
O     3.184000000    -1.937000000     0.720000000
O     2.322000000    -1.357000000     2.681000000
O    -4.217000000     1.906000000    -0.163000000
H    -5.115000000     2.238000000    -0.187000000
H    -3.761000000     2.495000000     0.438000000
O     1.816000000    -4.269000000     0.545000000
H     2.085000000    -3.351000000     0.555000000
H     2.017000000    -4.568000000    -0.341000000
O     5.203000000    -0.576000000    -0.220000000
H     4.306000000    -0.835000000    -0.010000000
H     5.132000000     0.343000000    -0.479000000
O    -2.208000000    -3.040000000    -3.936000000
H    -2.478000000    -2.146000000    -4.148000000
H    -1.305000000    -2.952000000    -3.631000000
O     3.104000000     1.748000000     3.441000000
H     3.219000000     0.805000000     3.327000000
H     2.762000000     2.051000000     2.600000000
O     1.266000000    -0.963000000    -4.612000000
H     1.100000000    -1.442000000    -3.800000000
H     0.464000000    -0.462000000    -4.762000000
O     5.422000000    -4.088000000     3.648000000
H     5.513000000    -3.875000000     2.720000000
H     4.652000000    -4.654000000     3.690000000
O     0.060000000     3.026000000     3.253000000
H     0.624000000     3.209000000     2.502000000
H     0.464000000     3.502000000     3.978000000
O    -1.195000000    -5.359000000     3.016000000
H    -0.346000000    -4.928000000     2.919000000
H    -1.823000000    -4.739000000     2.644000000
O     0.719000000    -2.239000000     4.738000000
H     1.145000000    -1.938000000     3.936000000
H    -0.072000000    -2.685000000     4.437000000
O     2.623000000     4.039000000     4.540000000
H     2.832000000     3.245000000     4.049000000
H     2.874000000     3.836000000     5.442000000
O    -5.020000000     3.687000000     3.087000000
H    -4.741000000     4.304000000     3.763000000
H    -4.305000000     3.691000000     2.450000000
O     0.252000000    -3.247000000    -2.913000000
H     0.089000000    -3.228000000    -1.970000000
H     0.736000000    -4.061000000    -3.056000000
O    -0.968000000    -3.669000000    -0.268000000
H    -0.583000000    -4.192000000     0.435000000
H    -1.644000000    -3.147000000     0.165000000
O     1.880000000    -4.617000000     5.205000000
H     1.628000000    -3.696000000     5.142000000
H     1.699000000    -4.853000000     6.115000000
O     5.058000000     0.636000000     5.834000000
H     4.465000000     0.849000000     6.554000000
H     4.545000000     0.066000000     5.262000000
O    -3.591000000    -2.419000000     1.655000000
H    -3.748000000    -3.048000000     0.951000000
H    -4.145000000    -2.723000000     2.375000000
O    -1.070000000     0.377000000    -5.157000000
H    -1.911000000     0.012000000    -5.433000000
H    -1.297000000     1.195000000    -4.715000000
O     4.768000000     1.018000000    -3.317000000
H     5.545000000     1.379000000    -2.890000000
H     4.121000000     1.722000000    -3.273000000
O    -2.700000000     2.002000000    -7.111000000
H    -2.163000000     2.188000000    -6.341000000
H    -3.593000000     2.206000000    -6.836000000
O    -2.965000000     4.076000000     1.436000000
H    -2.264000000     4.195000000     2.077000000
H    -2.751000000     4.688000000     0.731000000
O    -7.193000000    -2.345000000    -0.525000000
H    -7.577000000    -2.806000000    -1.271000000
H    -6.768000000    -1.579000000    -0.910000000
O     2.247000000     3.889000000     1.461000000
H     2.614000000     4.739000000     1.704000000
H     2.086000000     3.958000000     0.520000000
O     0.754000000     3.264000000    -0.909000000
H     0.861000000     2.465000000    -0.392000000
H     0.468000000     2.957000000    -1.769000000
O    -7.035000000     2.217000000    -0.566000000
H    -7.058000000     1.341000000    -0.951000000
H    -7.576000000     2.148000000     0.220000000
O     5.655000000    -5.058000000    -1.024000000
H     6.322000000    -4.502000000    -1.426000000
H     5.978000000    -5.950000000    -1.152000000
O    -3.769000000    -0.657000000     4.728000000
H    -4.425000000    -0.064000000     4.360000000
H    -3.669000000    -0.368000000     5.635000000
O     2.728000000     1.266000000    -5.842000000
H     3.069000000     1.051000000    -6.710000000
H     2.548000000     0.417000000    -5.438000000
O     0.341000000    -0.749000000     7.016000000
H     0.448000000    -1.193000000     6.174000000
H     0.160000000     0.162000000     6.785000000
O    -6.604000000    -0.097000000    -2.396000000
H    -5.654000000     0.017000000    -2.409000000
H    -6.836000000    -0.284000000    -3.305000000
O     4.215000000    -1.879000000     4.740000000
H     3.687000000    -1.756000000     3.952000000
H     4.486000000    -2.796000000     4.706000000
O    -2.721000000     5.976000000    -0.602000000
H    -2.197000000     6.756000000    -0.786000000
H    -3.577000000     6.319000000    -0.346000000
O     5.139000000    -1.576000000    -3.181000000
H     4.992000000    -0.637000000    -3.289000000
H     4.891000000    -1.755000000    -2.274000000
O    -3.737000000    -0.503000000    -4.589000000
H    -4.476000000     0.006000000    -4.921000000
H    -3.881000000    -0.548000000    -3.644000000
O    -1.762000000     2.869000000    -4.424000000
H    -2.282000000     3.012000000    -3.633000000
H    -1.670000000     3.739000000    -4.812000000
O     3.620000000    -2.498000000    -5.382000000
H     2.847000000    -1.970000000    -5.181000000
H     4.224000000    -2.323000000    -4.659000000
O    -4.340000000    -3.377000000    -0.985000000
H    -4.023000000    -4.190000000    -1.379000000
H    -5.242000000    -3.571000000    -0.729000000
O    -3.970000000    -0.341000000    -1.892000000
H    -3.954000000     0.422000000    -1.314000000
H    -3.779000000    -1.081000000    -1.316000000
O    -3.016000000     3.823000000    -2.322000000
H    -3.885000000     3.613000000    -1.981000000
H    -2.743000000     4.593000000    -1.824000000
O    -6.471000000     3.132000000    -3.337000000
H    -7.281000000     2.869000000    -3.773000000
H    -6.463000000     2.629000000    -2.523000000
O     0.036000000     1.755000000     5.775000000
H     0.102000000     1.776000000     4.820000000
H     0.839000000     2.178000000     6.080000000
O     3.143000000    -4.782000000    -1.733000000
H     3.176000000    -5.447000000    -2.420000000
H     4.050000000    -4.692000000    -1.442000000
O     1.146000000     2.421000000    -3.551000000
H     0.333000000     2.653000000    -4.000000000
H     1.745000000     2.170000000    -4.255000000
O    -5.616000000     0.978000000     3.197000000
H    -5.724000000     1.929000000     3.217000000
H    -5.296000000     0.792000000     2.314000000
O     3.020000000    -5.370000000     2.896000000
H     2.444000000    -4.977000000     2.240000000
H     2.598000000    -5.174000000     3.733000000
O     6.257000000    -0.875000000     2.434000000
H     5.478000000    -1.148000000     2.918000000
H     5.993000000    -0.911000000     1.515000000
O    -1.075000000    -2.400000000     2.548000000
H    -1.904000000    -2.113000000     2.167000000
H    -0.445000000    -1.730000000     2.284000000
O     5.213000000    -3.542000000     1.116000000
H     4.530000000    -2.917000000     0.871000000
H     5.298000000    -4.115000000     0.353000000
