158
-3060.95995
C     1.174000000     0.752000000    -0.281000000
H     1.951000000     1.493000000    -0.452000000
C    -0.132000000     1.198000000    -0.363000000
H    -0.345000000     2.258000000    -0.465000000
C    -1.166000000     0.357000000    -0.016000000
H    -2.201000000     0.736000000     0.045000000
C    -0.904000000    -0.957000000     0.340000000
H    -1.813000000    -1.509000000     0.568000000
C     0.407000000    -1.394000000     0.352000000
H     0.603000000    -2.414000000     0.672000000
C     1.481000000    -0.560000000     0.102000000
C     2.917000000    -1.021000000    -0.001000000
O     3.194000000    -2.217000000     0.011000000
O     3.865000000    -0.268000000    -0.101000000
O    -4.433000000     6.119000000     1.322000000
H    -3.771000000     6.528000000     0.764000000
H    -4.834000000     5.450000000     0.767000000
O     3.591000000     4.219000000     2.466000000
H     3.649000000     5.169000000     2.567000000
H     4.099000000     4.031000000     1.676000000
O     5.098000000    -6.321000000     2.400000000
H     4.565000000    -5.613000000     2.038000000
H     4.775000000    -7.110000000     1.966000000
O     5.015000000    -1.553000000     3.007000000
H     4.500000000    -2.332000000     2.794000000
H     4.487000000    -0.822000000     2.686000000
O    -3.857000000     1.121000000    -2.502000000
H    -3.493000000     1.868000000    -2.978000000
H    -3.315000000     0.379000000    -2.772000000
O     3.337000000     1.545000000     2.092000000
H     3.498000000     2.485000000     2.007000000
H     3.450000000     1.201000000     1.206000000
O    -2.600000000    -4.606000000     1.404000000
H    -2.299000000    -4.619000000     0.496000000
H    -1.969000000    -5.151000000     1.874000000
O     2.584000000     3.245000000    -2.259000000
H     2.268000000     3.815000000    -1.559000000
H     2.028000000     3.456000000    -3.010000000
O    -2.400000000     5.603000000    -2.843000000
H    -2.471000000     4.840000000    -3.417000000
H    -2.062000000     6.297000000    -3.409000000
O     4.336000000    -2.902000000    -3.311000000
H     4.882000000    -2.302000000    -3.819000000
H     4.698000000    -2.861000000    -2.425000000
O    -0.154000000    -6.258000000     1.456000000
H     0.489000000    -5.815000000     2.010000000
H    -0.133000000    -7.170000000     1.748000000
O    -0.322000000    -2.868000000    -4.081000000
H     0.358000000    -3.112000000    -3.453000000
H    -0.946000000    -3.593000000    -4.052000000
O     5.376000000     3.718000000     0.243000000
H     6.177000000     4.241000000     0.203000000
H     5.425000000     3.148000000    -0.525000000
O    -5.801000000    -1.372000000    -3.721000000
H    -5.199000000    -1.904000000    -3.201000000
H    -6.141000000    -0.723000000    -3.105000000
O    -2.116000000    -4.713000000    -3.157000000
H    -1.572000000    -4.536000000    -2.389000000
H    -2.655000000    -5.461000000    -2.902000000
O    -1.175000000     2.919000000     2.225000000
H    -1.715000000     3.030000000     1.443000000
H    -0.431000000     3.505000000     2.088000000
O    -0.573000000    -4.430000000    -0.978000000
H     0.265000000    -4.090000000    -1.289000000
H    -0.343000000    -4.994000000    -0.239000000
O    -2.041000000     2.593000000    -3.972000000
H    -1.801000000     1.765000000    -4.388000000
H    -1.205000000     3.030000000    -3.811000000
O     5.889000000    -2.593000000    -0.745000000
H     5.139000000    -2.319000000    -0.217000000
H     6.225000000    -3.370000000    -0.299000000
O    -6.188000000    -0.701000000     0.909000000
H    -6.159000000    -1.646000000     0.758000000
H    -6.808000000    -0.592000000     1.630000000
O     6.623000000    -0.077000000    -2.186000000
H     6.168000000     0.662000000    -1.780000000
H     6.622000000    -0.758000000    -1.513000000
O    -2.797000000     3.234000000    -0.390000000
H    -2.181000000     3.045000000    -1.099000000
H    -3.591000000     2.757000000    -0.630000000
O     0.205000000     0.636000000     2.886000000
H    -0.028000000     1.271000000     2.209000000
H    -0.620000000     0.445000000     3.331000000
O    -2.883000000    -2.349000000     3.125000000
H    -2.765000000    -3.153000000     2.619000000
H    -3.604000000    -2.546000000     3.723000000
O     5.940000000     2.293000000     3.632000000
H     6.517000000     2.628000000     2.947000000
H     5.411000000     1.626000000     3.195000000
O     0.273000000     4.114000000    -3.947000000
H     0.546000000     5.020000000    -4.090000000
H     0.620000000     3.637000000    -4.701000000
O    -5.006000000     1.323000000    -0.167000000
H    -5.494000000     0.577000000     0.180000000
H    -4.637000000     1.005000000    -0.991000000
O    -4.265000000    -3.127000000    -2.486000000
H    -4.565000000    -3.911000000    -2.026000000
H    -3.413000000    -3.373000000    -2.847000000
O    -5.037000000     0.232000000     5.159000000
H    -4.118000000    -0.034000000     5.184000000
H    -5.112000000     0.760000000     4.365000000
O    -4.119000000     1.977000000     2.536000000
H    -4.081000000     1.863000000     1.587000000
H    -3.588000000     1.260000000     2.885000000
O    -1.674000000     3.383000000     4.767000000
H    -1.721000000     3.111000000     3.850000000
H    -0.737000000     3.456000000     4.948000000
O     1.918000000    -3.345000000    -2.150000000
H     2.682000000    -3.309000000    -2.725000000
H     2.241000000    -3.033000000    -1.304000000
O    -0.054000000    -2.015000000     3.352000000
H    -0.967000000    -2.206000000     3.141000000
H     0.186000000    -1.303000000     2.759000000
O    -1.718000000    -0.357000000    -3.441000000
H    -1.418000000    -1.142000000    -3.899000000
H    -1.115000000    -0.265000000    -2.704000000
O    -6.121000000     3.569000000     1.033000000
H    -5.575000000     2.940000000     0.561000000
H    -5.730000000     3.619000000     1.905000000
O     1.436000000    -4.189000000     3.053000000
H     1.024000000    -3.374000000     3.340000000
H     1.254000000    -4.811000000     3.758000000
O     1.398000000     4.429000000    -0.172000000
H     0.506000000     4.350000000    -0.511000000
H     1.302000000     4.924000000     0.641000000
O     3.606000000     6.104000000     0.023000000
H     4.351000000     5.508000000    -0.049000000
H     2.855000000     5.584000000    -0.263000000
O    -2.283000000     0.109000000     3.955000000
H    -2.610000000    -0.748000000     3.681000000
H    -2.393000000     0.114000000     4.906000000
O    -7.156000000     0.097000000    -1.761000000
H    -7.352000000     0.988000000    -1.473000000
H    -7.008000000    -0.390000000    -0.950000000
O     6.334000000     0.094000000     0.779000000
H     6.444000000    -0.747000000     1.224000000
H     5.403000000     0.129000000     0.560000000
O     2.280000000     0.612000000     4.702000000
H     2.869000000     0.954000000     4.029000000
H     1.483000000     0.380000000     4.226000000
O    -5.381000000    -3.838000000     0.730000000
H    -5.340000000    -4.390000000    -0.051000000
H    -4.629000000    -4.111000000     1.256000000
O     3.861000000    -3.900000000     1.805000000
H     3.020000000    -4.054000000     2.235000000
H     3.667000000    -3.259000000     1.121000000
O    -0.017000000     5.401000000     2.209000000
H    -0.535000000     6.191000000     2.057000000
H     0.181000000     5.420000000     3.146000000
O     5.078000000    -0.346000000    -4.270000000
H     5.968000000    -0.139000000    -3.987000000
H     4.516000000     0.078000000    -3.621000000
O     4.619000000     1.821000000    -1.746000000
H     4.248000000     1.136000000    -1.190000000
H     3.879000000     2.396000000    -1.943000000
O    -5.955000000     2.416000000    -3.658000000
H    -6.657000000     2.440000000    -3.007000000
H    -5.266000000     1.894000000    -3.247000000
