158
-3042.50958
C     0.886000000     0.938000000    -0.764000000
H     1.395000000     1.641000000    -1.419000000
C    -0.402000000     1.235000000    -0.284000000
H    -0.869000000     2.202000000    -0.455000000
C    -1.078000000     0.325000000     0.493000000
H    -1.977000000     0.629000000     1.048000000
C    -0.586000000    -0.964000000     0.629000000
H    -1.138000000    -1.729000000     1.170000000
C     0.666000000    -1.308000000     0.052000000
H     1.003000000    -2.338000000     0.142000000
C     1.438000000    -0.321000000    -0.552000000
C     2.749000000    -0.764000000    -1.074000000
O     3.034000000    -1.926000000    -1.219000000
O     3.612000000     0.113000000    -1.373000000
O    -2.437000000     6.286000000     0.470000000
H    -2.813000000     5.593000000    -0.073000000
H    -2.041000000     5.823000000     1.209000000
O     3.491000000    -3.625000000     0.704000000
H     2.992000000    -4.424000000     0.536000000
H     3.294000000    -3.059000000    -0.042000000
O    -2.557000000     2.293000000    -3.207000000
H    -1.631000000     2.462000000    -3.379000000
H    -2.754000000     1.504000000    -3.712000000
O     3.831000000     1.633000000     0.817000000
H     3.961000000     2.530000000     0.507000000
H     3.937000000     1.092000000     0.035000000
O     0.505000000    -5.559000000    -3.351000000
H     0.266000000    -5.014000000    -2.601000000
H     1.434000000    -5.376000000    -3.493000000
O    -2.055000000    -4.186000000     1.099000000
H    -1.333000000    -4.541000000     1.618000000
H    -2.335000000    -4.917000000     0.548000000
O     2.915000000    -4.487000000    -4.197000000
H     3.134000000    -3.556000000    -4.218000000
H     3.749000000    -4.932000000    -4.347000000
O     0.261000000    -5.727000000     2.739000000
H     0.819000000    -5.049000000     3.120000000
H     0.781000000    -6.528000000     2.801000000
O     2.784000000     3.821000000    -3.345000000
H     2.368000000     4.570000000    -2.919000000
H     2.347000000     3.754000000    -4.194000000
O     0.951000000    -5.277000000     0.200000000
H     0.714000000    -5.561000000     1.083000000
H     1.477000000    -5.996000000    -0.150000000
O     0.033000000    -2.301000000    -3.749000000
H    -0.362000000    -2.941000000    -3.156000000
H    -0.076000000    -2.682000000    -4.620000000
O    -4.791000000    -0.548000000     2.624000000
H    -5.476000000    -0.896000000     3.194000000
H    -4.566000000    -1.278000000     2.047000000
O     8.074000000    -1.257000000    -2.229000000
H     7.316000000    -0.908000000    -1.761000000
H     8.525000000    -1.800000000    -1.583000000
O     4.338000000     4.302000000     0.458000000
H     4.935000000     5.041000000     0.581000000
H     3.497000000     4.707000000     0.248000000
O    -7.697000000    -0.499000000    -1.083000000
H    -6.843000000    -0.909000000    -1.222000000
H    -7.542000000     0.434000000    -1.234000000
O    -3.475000000     4.115000000     5.537000000
H    -3.290000000     3.405000000     4.922000000
H    -3.358000000     4.914000000     5.024000000
O    -0.890000000    -3.762000000    -1.673000000
H    -1.617000000    -3.222000000    -1.363000000
H    -0.349000000    -3.904000000    -0.896000000
O     0.050000000     1.977000000    -3.689000000
H     0.136000000     1.324000000    -4.384000000
H     0.947000000     2.136000000    -3.397000000
O     5.087000000    -3.950000000    -1.884000000
H     4.465000000    -4.569000000    -1.501000000
H     4.709000000    -3.089000000    -1.704000000
O    -4.769000000     1.029000000     0.462000000
H    -4.773000000     0.272000000    -0.124000000
H    -4.779000000     0.651000000     1.341000000
O     8.413000000     1.046000000     0.674000000
H     8.530000000     1.817000000     0.118000000
H     7.736000000     0.533000000     0.233000000
O    -0.851000000     4.493000000     2.690000000
H    -0.372000000     3.986000000     3.345000000
H    -1.151000000     3.843000000     2.055000000
O    -0.208000000     2.387000000     4.744000000
H     0.448000000     2.330000000     4.049000000
H    -0.618000000     1.522000000     4.758000000
O    -1.417000000    -3.322000000     4.524000000
H    -1.714000000    -4.052000000     3.980000000
H    -2.015000000    -3.321000000     5.271000000
O    -3.084000000     3.233000000    -0.195000000
H    -3.384000000     2.329000000    -0.101000000
H    -2.808000000     3.300000000    -1.109000000
O    -4.955000000    -0.912000000    -1.423000000
H    -4.412000000    -1.558000000    -1.876000000
H    -4.866000000    -0.115000000    -1.946000000
O    -5.625000000     1.835000000     5.424000000
H    -6.226000000     2.557000000     5.607000000
H    -5.257000000     2.041000000     4.565000000
O    -3.338000000     1.858000000     3.927000000
H    -3.634000000     1.077000000     3.461000000
H    -2.515000000     1.594000000     4.340000000
O     3.801000000    -1.795000000    -4.018000000
H     4.701000000    -1.966000000    -3.742000000
H     3.310000000    -1.722000000    -3.200000000
O     1.200000000    -3.367000000     4.242000000
H     1.533000000    -2.910000000     5.015000000
H     0.248000000    -3.326000000     4.332000000
O    -1.647000000    -0.977000000    -2.332000000
H    -0.945000000    -1.432000000    -2.796000000
H    -1.202000000    -0.499000000    -1.633000000
O    -6.208000000     3.511000000     2.702000000
H    -5.256000000     3.423000000     2.754000000
H    -6.393000000     4.357000000     3.111000000
O     2.916000000    -1.764000000     2.719000000
H     2.241000000    -2.300000000     3.135000000
H     3.407000000    -2.379000000     2.174000000
O     1.599000000     5.942000000    -1.836000000
H     0.663000000     6.144000000    -1.821000000
H     1.810000000     5.718000000    -0.929000000
O    -1.335000000    -0.191000000     4.766000000
H    -1.443000000    -1.082000000     4.434000000
H    -1.397000000    -0.280000000     5.717000000
O    -6.778000000     2.097000000    -0.887000000
H    -6.786000000     3.006000000    -0.588000000
H    -6.218000000     1.643000000    -0.257000000
O     6.087000000    -0.628000000    -0.632000000
H     6.062000000    -1.095000000     0.203000000
H     5.174000000    -0.399000000    -0.806000000
O     1.332000000     2.130000000     2.062000000
H     1.030000000     1.524000000     1.385000000
H     2.286000000     2.061000000     2.038000000
O    -2.573000000    -0.096000000    -4.609000000
H    -2.873000000    -0.821000000    -5.157000000
H    -2.202000000    -0.518000000    -3.834000000
O    -4.347000000    -2.861000000     1.340000000
H    -4.717000000    -3.209000000     0.528000000
H    -3.460000000    -3.219000000     1.372000000
O     4.202000000     0.636000000     3.184000000
H     3.615000000    -0.060000000     2.888000000
H     4.138000000     1.309000000     2.506000000
O     1.611000000     5.495000000     1.029000000
H     1.262000000     4.877000000     1.671000000
H     1.413000000     6.358000000     1.394000000
O     6.853000000     1.946000000    -4.888000000
H     6.267000000     1.910000000    -4.132000000
H     6.446000000     2.582000000    -5.476000000
O    -5.887000000    -3.546000000     3.915000000
H    -6.354000000    -2.761000000     4.202000000
H    -5.768000000    -3.424000000     2.973000000
O     4.607000000     1.688000000    -3.156000000
H     4.340000000     0.917000000    -2.655000000
H     3.946000000     2.348000000    -2.948000000
O     6.106000000     3.942000000    -2.309000000
H     5.685000000     3.180000000    -2.707000000
H     6.940000000     3.609000000    -1.976000000
O     0.761000000    -0.006000000    -5.253000000
H     0.879000000    -0.166000000    -6.189000000
H     0.400000000    -0.825000000    -4.913000000
O    -4.944000000     1.543000000    -3.036000000
H    -5.371000000     1.823000000    -2.226000000
H    -4.072000000     1.936000000    -2.995000000
