158
-3034.39261
C     1.233000000     0.452000000    -0.535000000
H     2.107000000     0.868000000    -1.030000000
C     0.164000000     1.291000000    -0.276000000
H     0.187000000     2.369000000    -0.412000000
C    -0.952000000     0.700000000     0.306000000
H    -1.798000000     1.310000000     0.505000000
C    -1.015000000    -0.668000000     0.492000000
H    -1.878000000    -1.184000000     0.907000000
C     0.062000000    -1.500000000     0.102000000
H     0.101000000    -2.548000000     0.389000000
C     1.208000000    -0.937000000    -0.443000000
C     2.402000000    -1.817000000    -0.724000000
O     2.355000000    -3.055000000    -0.836000000
O     3.483000000    -1.270000000    -0.855000000
O    -3.508000000     6.466000000    -0.948000000
H    -2.944000000     5.891000000    -1.465000000
H    -3.780000000     5.928000000    -0.204000000
O     1.247000000    -5.138000000    -0.004000000
H     1.648000000    -5.456000000     0.806000000
H     1.591000000    -4.251000000    -0.109000000
O     6.882000000    -1.556000000    -4.979000000
H     6.327000000    -1.415000000    -4.212000000
H     6.733000000    -2.470000000    -5.218000000
O     5.839000000    -5.783000000     0.983000000
H     6.733000000    -5.663000000     1.303000000
H     5.619000000    -4.949000000     0.567000000
O    -3.343000000     2.856000000    -2.125000000
H    -2.994000000     3.743000000    -2.208000000
H    -2.568000000     2.294000000    -2.120000000
O     4.094000000     3.621000000     0.939000000
H     3.987000000     2.753000000     1.327000000
H     4.032000000     3.472000000    -0.004000000
O     0.015000000    -4.608000000    -4.302000000
H     0.811000000    -4.118000000    -4.095000000
H     0.105000000    -5.427000000    -3.815000000
O    -2.782000000     2.891000000    -5.209000000
H    -2.591000000     2.708000000    -4.289000000
H    -3.509000000     2.305000000    -5.423000000
O     2.266000000    -5.505000000     3.266000000
H     1.801000000    -5.119000000     4.008000000
H     3.009000000    -4.920000000     3.118000000
O     2.585000000    -3.205000000    -4.267000000
H     2.367000000    -2.294000000    -4.071000000
H     3.221000000    -3.150000000    -4.981000000
O    -1.485000000    -4.209000000    -0.739000000
H    -0.544000000    -4.045000000    -0.803000000
H    -1.738000000    -3.829000000     0.102000000
O     1.400000000     2.700000000    -3.831000000
H     0.970000000     3.103000000    -3.077000000
H     1.667000000     3.439000000    -4.378000000
O     1.041000000    -6.425000000    -2.597000000
H     0.320000000    -6.951000000    -2.253000000
H     1.285000000    -5.849000000    -1.872000000
O    -6.419000000    -1.324000000     1.033000000
H    -6.878000000    -0.946000000     0.282000000
H    -5.873000000    -2.014000000     0.657000000
O     7.196000000    -0.631000000    -1.967000000
H     6.668000000     0.163000000    -2.052000000
H     6.577000000    -1.347000000    -2.111000000
O    -6.372000000     0.579000000     2.800000000
H    -6.602000000    -0.204000000     2.300000000
H    -7.133000000     1.152000000     2.712000000
O     0.285000000     4.276000000     1.387000000
H    -0.259000000     3.821000000     2.030000000
H     1.021000000     4.618000000     1.895000000
O    -2.237000000    -1.597000000     5.998000000
H    -1.647000000    -1.928000000     5.321000000
H    -2.944000000    -1.171000000     5.513000000
O    -3.699000000    -1.087000000    -2.215000000
H    -3.667000000    -0.483000000    -1.473000000
H    -4.160000000    -1.855000000    -1.877000000
O    -1.793000000     5.086000000    -2.505000000
H    -0.965000000     5.320000000    -2.086000000
H    -1.676000000     5.332000000    -3.422000000
O     3.965000000    -4.924000000    -2.322000000
H     3.495000000    -4.533000000    -3.059000000
H     3.469000000    -4.651000000    -1.551000000
O     6.413000000    -0.390000000     1.408000000
H     7.036000000    -0.103000000     0.740000000
H     6.367000000     0.342000000     2.023000000
O    -4.356000000     5.830000000     1.449000000
H    -5.218000000     5.533000000     1.740000000
H    -3.739000000     5.361000000     2.011000000
O     0.189000000     3.390000000     4.003000000
H    -0.738000000     3.159000000     4.051000000
H     0.560000000     3.063000000     4.823000000
O    -2.287000000    -4.287000000     2.161000000
H    -1.997000000    -5.118000000     2.538000000
H    -3.233000000    -4.276000000     2.305000000
O    -6.159000000     2.824000000    -0.938000000
H    -6.623000000     2.125000000    -0.477000000
H    -5.266000000     2.494000000    -1.038000000
O    -5.430000000     3.312000000     3.522000000
H    -5.908000000     4.045000000     3.135000000
H    -5.447000000     2.633000000     2.847000000
O    -3.978000000    -0.780000000     4.115000000
H    -4.168000000    -1.605000000     3.667000000
H    -4.704000000    -0.204000000     3.874000000
O    -2.915000000     5.193000000     3.990000000
H    -3.440000000     4.404000000     4.123000000
H    -2.084000000     5.003000000     4.427000000
O     4.821000000    -7.482000000    -2.008000000
H     4.132000000    -7.819000000    -2.581000000
H     4.861000000    -6.546000000    -2.207000000
O     1.638000000    -0.180000000    -4.250000000
H     1.534000000     0.770000000    -4.299000000
H     0.848000000    -0.529000000    -4.663000000
O    -1.722000000     0.880000000    -2.977000000
H    -2.224000000     0.075000000    -2.851000000
H    -0.859000000     0.683000000    -2.613000000
O     4.520000000    -3.786000000     3.427000000
H     4.722000000    -3.805000000     2.492000000
H     4.453000000    -2.855000000     3.639000000
O    -4.796000000    -3.201000000     3.396000000
H    -5.043000000    -3.650000000     4.204000000
H    -5.625000000    -2.896000000     3.028000000
O    -0.788000000    -2.481000000     3.972000000
H    -1.522000000    -2.926000000     3.547000000
H    -0.295000000    -3.183000000     4.396000000
O    -0.639000000    -6.539000000     2.883000000
H     0.207000000    -6.123000000     3.051000000
H    -0.569000000    -6.871000000     1.988000000
O     0.468000000     5.483000000    -1.179000000
H     0.416000000     5.093000000    -0.306000000
H     0.982000000     6.280000000    -1.055000000
O     0.299000000     0.133000000     2.858000000
H    -0.394000000    -0.460000000     3.150000000
H     0.051000000     0.370000000     1.965000000
O     5.247000000    -2.356000000    -2.948000000
H     5.439000000    -3.283000000    -3.089000000
H     4.419000000    -2.353000000    -2.469000000
O     3.561000000     0.483000000     1.875000000
H     3.933000000    -0.148000000     1.259000000
H     2.644000000     0.563000000     1.611000000
O    -2.424000000     1.842000000     4.849000000
H    -2.518000000     1.135000000     4.211000000
H    -3.207000000     1.777000000     5.396000000
O    -5.188000000    -3.189000000    -0.828000000
H    -4.603000000    -3.868000000    -0.493000000
H    -5.445000000    -3.501000000    -1.696000000
O    -5.271000000     1.921000000    -3.939000000
H    -4.649000000     2.433000000    -3.421000000
H    -6.130000000     2.242000000    -3.666000000
O     8.048000000    -3.310000000    -0.396000000
H     7.189000000    -3.378000000     0.022000000
H     7.859000000    -2.993000000    -1.280000000
O     5.278000000    -2.898000000     0.517000000
H     4.671000000    -2.734000000    -0.204000000
H     5.502000000    -2.027000000     0.844000000
O     5.018000000     2.364000000    -4.668000000
H     4.755000000     2.167000000    -5.567000000
H     4.770000000     1.585000000    -4.170000000
O     3.985000000     0.433000000    -3.100000000
H     3.988000000    -0.138000000    -2.332000000
H     3.175000000     0.212000000    -3.560000000
O     4.190000000     3.033000000    -1.681000000
H     4.021000000     2.140000000    -1.981000000
H     4.134000000     3.566000000    -2.474000000
