158
-3024.29603
C     1.097000000    -0.395000000    -0.831000000
H     1.922000000    -0.592000000    -1.511000000
C     0.712000000     0.914000000    -0.681000000
H     1.302000000     1.729000000    -1.090000000
C    -0.348000000     1.158000000     0.241000000
H    -0.634000000     2.213000000     0.418000000
C    -0.973000000     0.139000000     0.926000000
H    -1.782000000     0.291000000     1.636000000
C    -0.549000000    -1.239000000     0.772000000
H    -1.090000000    -2.043000000     1.264000000
C     0.435000000    -1.505000000    -0.214000000
C     0.698000000    -2.934000000    -0.682000000
O     0.087000000    -3.874000000    -0.165000000
O     1.471000000    -3.207000000    -1.559000000
O    -3.522000000     6.309000000     1.795000000
H    -2.910000000     5.730000000     1.342000000
H    -4.387000000     5.964000000     1.574000000
O    -0.882000000     6.438000000     3.638000000
H    -0.146000000     6.702000000     4.190000000
H    -1.073000000     7.212000000     3.108000000
O    -0.771000000    -4.696000000     2.401000000
H    -1.727000000    -4.668000000     2.415000000
H    -0.536000000    -4.438000000     1.510000000
O     0.912000000     7.578000000    -2.278000000
H     0.234000000     6.908000000    -2.194000000
H     0.896000000     8.042000000    -1.441000000
O    -6.195000000     2.310000000    -0.538000000
H    -5.734000000     1.831000000     0.150000000
H    -5.995000000     1.830000000    -1.341000000
O     1.114000000     2.632000000    -4.231000000
H     0.532000000     2.040000000    -3.755000000
H     1.995000000     2.352000000    -3.984000000
O     1.182000000    -4.049000000    -4.184000000
H     1.867000000    -3.450000000    -4.481000000
H     1.012000000    -3.787000000    -3.279000000
O     0.123000000    -2.491000000    -6.364000000
H    -0.131000000    -3.160000000    -5.729000000
H     0.518000000    -1.797000000    -5.835000000
O     3.423000000    -2.706000000    -4.680000000
H     2.994000000    -1.878000000    -4.465000000
H     3.964000000    -2.504000000    -5.443000000
O    -2.872000000     1.201000000    -1.699000000
H    -2.528000000     2.086000000    -1.578000000
H    -2.553000000     0.714000000    -0.939000000
O     1.498000000    -6.077000000     1.963000000
H     0.820000000    -5.643000000     2.481000000
H     1.294000000    -7.009000000     2.035000000
O    -1.768000000     6.442000000    -1.991000000
H    -1.869000000     6.159000000    -1.083000000
H    -1.642000000     5.631000000    -2.483000000
O    -1.987000000    -7.508000000    -2.077000000
H    -2.283000000    -8.404000000    -1.921000000
H    -1.252000000    -7.390000000    -1.475000000
O    -5.390000000    -1.968000000    -0.297000000
H    -5.816000000    -2.649000000     0.224000000
H    -4.642000000    -2.408000000    -0.701000000
O    -1.748000000    -2.503000000    -3.596000000
H    -0.891000000    -2.115000000    -3.418000000
H    -1.790000000    -3.266000000    -3.020000000
O    -5.189000000     0.376000000     1.239000000
H    -5.567000000    -0.237000000     0.609000000
H    -5.361000000    -0.021000000     2.093000000
O     2.034000000     3.754000000     1.655000000
H     2.245000000     2.823000000     1.733000000
H     2.820000000     4.204000000     1.964000000
O    -1.179000000     5.009000000     0.621000000
H    -0.397000000     4.962000000     0.071000000
H    -0.850000000     5.268000000     1.482000000
O    -5.335000000     0.707000000    -2.634000000
H    -4.385000000     0.739000000    -2.523000000
H    -5.490000000    -0.082000000    -3.153000000
O     2.506000000    -5.506000000    -0.644000000
H     2.046000000    -5.888000000     0.104000000
H     1.856000000    -4.942000000    -1.063000000
O     3.613000000     4.389000000    -2.729000000
H     3.691000000     4.498000000    -3.677000000
H     3.773000000     3.456000000    -2.582000000
O     5.549000000    -2.879000000     0.271000000
H     4.719000000    -3.026000000     0.725000000
H     5.349000000    -3.038000000    -0.651000000
O    -4.487000000     2.787000000     3.001000000
H    -4.507000000     2.074000000     2.363000000
H    -4.018000000     2.423000000     3.752000000
O     3.524000000     1.504000000     2.119000000
H     2.886000000     0.842000000     2.389000000
H     4.020000000     1.696000000     2.915000000
O    -3.391000000    -4.581000000     2.060000000
H    -4.034000000    -4.098000000     2.579000000
H    -3.888000000    -4.908000000     1.309000000
O    -1.581000000     4.052000000    -3.360000000
H    -0.967000000     3.320000000    -3.307000000
H    -1.593000000     4.288000000    -4.288000000
O    -3.585000000    -0.424000000     6.333000000
H    -3.947000000     0.191000000     6.972000000
H    -3.290000000     0.129000000     5.610000000
O    -2.726000000    -2.165000000     4.325000000
H    -3.484000000    -2.221000000     3.744000000
H    -3.012000000    -1.596000000     5.039000000
O    -2.449000000     1.344000000     4.641000000
H    -2.108000000     1.834000000     5.390000000
H    -1.831000000     1.527000000     3.934000000
O     3.029000000    -8.078000000    -1.857000000
H     2.426000000    -8.234000000    -2.584000000
H     2.502000000    -7.622000000    -1.202000000
O     1.356000000    -0.631000000    -4.609000000
H     1.326000000     0.128000000    -5.191000000
H     0.802000000    -0.387000000    -3.868000000
O    -1.031000000     0.976000000    -3.812000000
H    -1.736000000     0.882000000    -3.172000000
H    -1.476000000     0.979000000    -4.659000000
O     0.324000000    -4.729000000     5.148000000
H     0.132000000    -4.627000000     4.216000000
H    -0.138000000    -5.529000000     5.401000000
O    -4.888000000     4.927000000    -3.017000000
H    -4.688000000     5.222000000    -2.128000000
H    -4.085000000     5.093000000    -3.511000000
O     2.935000000    -3.348000000     1.476000000
H     2.086000000    -2.909000000     1.425000000
H     2.720000000    -4.273000000     1.593000000
O     1.073000000     4.670000000    -0.687000000
H     1.802000000     4.697000000    -1.306000000
H     1.467000000     4.375000000     0.134000000
O     5.152000000    -6.367000000    -2.410000000
H     4.634000000    -7.163000000    -2.531000000
H     4.621000000    -5.821000000    -1.831000000
O     0.086000000    -8.057000000    -0.302000000
H     0.564000000    -8.802000000    -0.666000000
H     0.245000000    -8.109000000     0.641000000
O     5.867000000     0.215000000     1.068000000
H     5.025000000     0.007000000     1.474000000
H     6.013000000    -0.494000000     0.443000000
O    -0.052000000     2.893000000     3.475000000
H    -0.227000000     2.780000000     2.540000000
H     0.831000000     3.259000000     3.510000000
O    -0.448000000    -6.272000000    -4.210000000
H    -0.804000000    -6.593000000    -3.381000000
H    -0.084000000    -5.413000000    -3.997000000
O     1.525000000    -0.497000000     2.872000000
H     1.270000000    -0.933000000     3.685000000
H     0.704000000    -0.385000000     2.393000000
O     4.839000000    -5.869000000     0.740000000
H     4.089000000    -5.501000000     0.273000000
H     4.788000000    -5.485000000     1.616000000
O     0.166000000    -1.903000000     4.779000000
H    -0.720000000    -2.041000000     4.445000000
H     0.325000000    -2.653000000     5.352000000
O     5.014000000    -0.694000000    -1.911000000
H     5.622000000    -0.778000000    -2.645000000
H     4.679000000    -1.580000000    -1.774000000
O     4.182000000    -3.496000000    -2.045000000
H     3.239000000    -3.584000000    -1.906000000
H     4.309000000    -3.707000000    -2.970000000
O     3.923000000     1.877000000    -1.551000000
H     4.201000000     1.084000000    -2.010000000
H     4.320000000     1.803000000    -0.683000000
O    -1.950000000    -4.548000000    -1.781000000
H    -1.304000000    -4.510000000    -1.075000000
H    -2.713000000    -4.970000000    -1.386000000
