158
-3056.24912
C    -0.231000000    -0.624000000     1.319000000
H    -0.411000000    -1.237000000     2.198000000
C     0.537000000    -1.218000000     0.294000000
H     0.968000000    -2.216000000     0.324000000
C     0.658000000    -0.534000000    -0.886000000
H     1.127000000    -0.970000000    -1.743000000
C     0.216000000     0.791000000    -0.961000000
H     0.427000000     1.314000000    -1.891000000
C    -0.508000000     1.378000000     0.098000000
H    -0.892000000     2.381000000    -0.067000000
C    -0.795000000     0.647000000     1.206000000
C    -1.749000000     1.154000000     2.238000000
O    -1.937000000     2.335000000     2.354000000
O    -2.307000000     0.407000000     3.030000000
O     2.452000000     0.727000000     4.964000000
H     3.099000000     1.047000000     5.593000000
H     1.608000000     0.973000000     5.341000000
O    -6.642000000    -1.587000000     1.163000000
H    -5.723000000    -1.322000000     1.168000000
H    -6.944000000    -1.422000000     2.056000000
O     3.580000000     4.657000000    -1.522000000
H     3.519000000     4.762000000    -0.572000000
H     4.520000000     4.621000000    -1.699000000
O    -1.563000000    -4.660000000     0.162000000
H    -1.992000000    -4.385000000     0.972000000
H    -2.053000000    -4.218000000    -0.531000000
O    -2.467000000    -0.276000000    -4.823000000
H    -2.291000000     0.663000000    -4.893000000
H    -2.166000000    -0.638000000    -5.656000000
O     7.024000000     0.596000000     0.147000000
H     6.309000000    -0.009000000    -0.046000000
H     6.789000000     0.985000000     0.990000000
O    -3.727000000     4.048000000     1.552000000
H    -3.115000000     3.368000000     1.835000000
H    -3.182000000     4.827000000     1.437000000
O    -0.860000000    -1.173000000     6.666000000
H    -1.268000000    -1.271000000     5.806000000
H    -0.013000000    -1.610000000     6.581000000
O    -3.663000000    -3.204000000     1.790000000
H    -4.348000000    -3.616000000     1.263000000
H    -3.949000000    -3.331000000     2.695000000
O     3.408000000    -0.244000000     0.527000000
H     2.533000000    -0.308000000     0.143000000
H     3.466000000     0.658000000     0.842000000
O     0.677000000     5.709000000     3.982000000
H     0.885000000     6.139000000     4.811000000
H     0.840000000     6.378000000     3.317000000
O    -0.335000000    -6.227000000    -2.739000000
H     0.536000000    -6.321000000    -3.124000000
H    -0.777000000    -5.588000000    -3.298000000
O    -6.251000000    -0.965000000     3.810000000
H    -5.622000000    -0.248000000     3.729000000
H    -6.382000000    -1.064000000     4.753000000
O    -4.033000000    -0.986000000    -2.871000000
H    -3.567000000    -0.811000000    -3.689000000
H    -3.669000000    -0.357000000    -2.248000000
O    -4.674000000     1.170000000     4.132000000
H    -4.638000000     2.111000000     3.962000000
H    -3.805000000     0.850000000     3.890000000
O     3.666000000    -1.700000000    -3.669000000
H     3.133000000    -2.400000000    -4.047000000
H     3.347000000    -0.902000000    -4.091000000
O    -5.150000000     4.239000000     4.755000000
H    -5.222000000     4.577000000     5.648000000
H    -6.045000000     4.264000000     4.417000000
O    -4.091000000    -3.952000000     4.480000000
H    -3.226000000    -3.576000000     4.641000000
H    -3.987000000    -4.883000000     4.672000000
O    -1.416000000     5.675000000     6.112000000
H    -0.932000000     5.730000000     5.288000000
H    -1.609000000     4.743000000     6.214000000
O     0.604000000     3.312000000     2.570000000
H     0.587000000     3.856000000     3.357000000
H    -0.317000000     3.130000000     2.385000000
O    -4.191000000     5.558000000    -1.943000000
H    -3.323000000     5.929000000    -1.784000000
H    -4.040000000     4.615000000    -2.005000000
O     2.265000000    -3.736000000    -4.819000000
H     1.705000000    -3.994000000    -5.551000000
H     2.634000000    -4.558000000    -4.498000000
O    -3.205000000     0.678000000    -0.989000000
H    -3.773000000     0.263000000    -0.339000000
H    -2.323000000     0.389000000    -0.755000000
O     4.454000000    -5.654000000    -2.317000000
H     3.528000000    -5.713000000    -2.552000000
H     4.459000000    -5.649000000    -1.360000000
O     1.384000000     2.972000000    -4.355000000
H     1.486000000     3.494000000    -3.559000000
H     0.440000000     2.832000000    -4.430000000
O    -4.452000000     1.651000000     7.294000000
H    -3.860000000     0.983000000     7.639000000
H    -4.291000000     1.651000000     6.350000000
O     5.376000000    -1.254000000    -1.023000000
H     4.963000000    -1.379000000    -1.878000000
H     4.695000000    -0.849000000    -0.486000000
O    -1.861000000    -1.946000000     4.352000000
H    -1.592000000    -2.735000000     3.882000000
H    -2.164000000    -1.350000000     3.667000000
O    -0.175000000     1.455000000     5.715000000
H    -0.939000000     1.993000000     5.506000000
H    -0.524000000     0.567000000     5.802000000
O    -4.299000000     2.482000000    -2.695000000
H    -5.204000000     2.534000000    -2.387000000
H    -3.920000000     1.754000000    -2.203000000
O     2.827000000     0.409000000    -4.896000000
H     3.626000000     0.725000000    -5.318000000
H     2.318000000     1.202000000    -4.724000000
O     4.597000000    -2.068000000     2.445000000
H     4.366000000    -2.817000000     1.896000000
H     4.115000000    -1.334000000     2.064000000
O    -0.943000000    -4.003000000    -3.986000000
H    -1.578000000    -3.608000000    -3.389000000
H    -0.254000000    -3.345000000    -4.074000000
O    -0.536000000    -4.286000000     3.294000000
H     0.387000000    -4.171000000     3.520000000
H    -0.558000000    -5.096000000     2.784000000
O     0.589000000    -6.621000000     0.199000000
H    -0.310000000    -6.386000000     0.427000000
H     0.510000000    -7.107000000    -0.621000000
O    -4.157000000    -0.587000000     1.423000000
H    -3.701000000    -1.415000000     1.574000000
H    -3.648000000     0.060000000     1.913000000
O     0.956000000     4.694000000    -2.204000000
H     0.461000000     4.685000000    -1.385000000
H     1.872000000     4.644000000    -1.932000000
O    -1.769000000     2.505000000    -4.834000000
H    -1.960000000     3.090000000    -4.100000000
H    -2.136000000     2.951000000    -5.597000000
O     0.871000000     5.383000000     0.695000000
H     1.075000000     4.559000000     1.136000000
H     1.673000000     5.900000000     0.769000000
O    -2.426000000     2.996000000     4.946000000
H    -3.193000000     3.569000000     4.957000000
H    -2.445000000     2.586000000     4.081000000
O    -1.693000000     6.095000000     1.430000000
H    -0.821000000     5.701000000     1.470000000
H    -1.754000000     6.454000000     0.545000000
O     2.871000000     1.874000000     2.269000000
H     2.844000000     1.326000000     3.053000000
H     2.002000000     2.274000000     2.226000000
O    -0.651000000    -3.667000000    -6.801000000
H    -0.754000000    -3.714000000    -5.850000000
H    -1.255000000    -2.976000000    -7.073000000
O    -6.194000000     3.416000000     1.401000000
H    -6.408000000     3.018000000     2.245000000
H    -5.371000000     3.879000000     1.555000000
O     3.641000000    -4.370000000     1.426000000
H     3.154000000    -3.980000000     0.700000000
H     4.038000000    -5.158000000     1.053000000
O    -2.703000000    -3.370000000    -1.941000000
H    -3.316000000    -4.059000000    -2.197000000
H    -3.121000000    -2.559000000    -2.230000000
O     1.981000000    -4.593000000    -0.741000000
H     1.525000000    -5.406000000    -0.523000000
H     1.418000000    -4.170000000    -1.390000000
O     2.308000000    -4.707000000     3.711000000
H     2.709000000    -4.490000000     2.870000000
H     2.984000000    -5.197000000     4.179000000
