158
-3026.05823
C     1.440000000     0.062000000     0.060000000
H     2.501000000     0.298000000     0.072000000
C     0.598000000     1.076000000    -0.450000000
H     1.044000000     1.961000000    -0.898000000
C    -0.750000000     0.888000000    -0.415000000
H    -1.331000000     1.713000000    -0.786000000
C    -1.265000000    -0.346000000     0.052000000
H    -2.334000000    -0.512000000    -0.049000000
C    -0.431000000    -1.332000000     0.599000000
H    -0.950000000    -2.051000000     1.228000000
C     0.963000000    -1.158000000     0.565000000
C     1.886000000    -2.128000000     1.228000000
O     1.602000000    -3.301000000     1.367000000
O     3.011000000    -1.741000000     1.607000000
O    -0.203000000     6.128000000     2.157000000
H    -0.321000000     5.274000000     2.573000000
H     0.720000000     6.338000000     2.299000000
O     3.874000000    -3.444000000     3.455000000
H     3.973000000    -2.677000000     4.018000000
H     3.487000000    -3.101000000     2.649000000
O     0.882000000     2.467000000    -4.228000000
H     0.682000000     1.888000000    -4.963000000
H     1.838000000     2.471000000    -4.180000000
O     1.645000000     5.425000000    -0.438000000
H     2.256000000     5.006000000     0.170000000
H     2.102000000     5.419000000    -1.279000000
O     4.007000000    -3.466000000    -2.111000000
H     4.532000000    -3.103000000    -1.398000000
H     3.310000000    -3.954000000    -1.671000000
O    -1.382000000     7.098000000    -2.265000000
H    -2.035000000     7.443000000    -2.874000000
H    -0.887000000     6.462000000    -2.780000000
O    -0.424000000     0.059000000    -3.455000000
H    -0.887000000    -0.079000000    -2.628000000
H     0.153000000     0.803000000    -3.285000000
O     6.112000000    -4.948000000     4.088000000
H     5.432000000    -4.319000000     3.845000000
H     6.857000000    -4.407000000     4.347000000
O     3.667000000     2.429000000    -3.839000000
H     3.591000000     3.367000000    -4.013000000
H     3.824000000     2.373000000    -2.896000000
O    -2.699000000    -0.980000000     3.436000000
H    -3.264000000    -0.705000000     4.158000000
H    -2.824000000    -1.928000000     3.381000000
O     0.616000000    -3.476000000    -3.152000000
H     1.184000000    -4.004000000    -2.590000000
H     0.996000000    -2.599000000    -3.121000000
O    -4.803000000    -2.453000000    -2.901000000
H    -4.702000000    -1.505000000    -2.824000000
H    -4.804000000    -2.768000000    -1.997000000
O    -4.131000000     0.218000000    -2.205000000
H    -3.968000000     1.152000000    -2.335000000
H    -4.635000000     0.173000000    -1.392000000
O     1.891000000     1.418000000     5.090000000
H     1.496000000     1.141000000     4.264000000
H     1.476000000     0.864000000     5.752000000
O    -4.766000000    -2.673000000    -0.191000000
H    -4.654000000    -2.042000000     0.520000000
H    -5.451000000    -3.265000000     0.121000000
O    -2.727000000     3.248000000    -4.827000000
H    -3.283000000     3.489000000    -5.568000000
H    -3.234000000     3.503000000    -4.055000000
O    -0.281000000     0.713000000     3.170000000
H    -1.119000000     0.281000000     3.339000000
H    -0.085000000     0.506000000     2.256000000
O    -1.538000000     4.951000000    -6.497000000
H    -1.992000000     4.387000000    -5.871000000
H    -1.503000000     4.436000000    -7.303000000
O    -2.057000000     0.753000000    -5.839000000
H    -1.646000000     0.445000000    -5.031000000
H    -2.352000000     1.640000000    -5.635000000
O     2.962000000    -5.983000000     3.308000000
H     2.895000000    -5.034000000     3.418000000
H     2.400000000    -6.344000000     3.994000000
O    -0.269000000     4.858000000    -3.391000000
H    -0.490000000     4.032000000    -3.822000000
H     0.685000000     4.837000000    -3.309000000
O    -0.443000000    -6.501000000    -0.947000000
H    -0.971000000    -5.771000000    -1.271000000
H    -0.267000000    -6.282000000    -0.032000000
O    -3.424000000    -3.762000000     3.065000000
H    -4.163000000    -4.200000000     3.488000000
H    -2.714000000    -4.403000000     3.099000000
O    -1.559000000     4.586000000    -0.679000000
H    -1.427000000     4.618000000    -1.626000000
H    -0.738000000     4.912000000    -0.311000000
O     6.660000000    -1.052000000     4.587000000
H     5.929000000    -0.592000000     4.174000000
H     6.873000000    -0.521000000     5.355000000
O    -3.964000000     3.287000000    -2.204000000
H    -3.526000000     3.520000000    -1.385000000
H    -4.842000000     3.659000000    -2.119000000
O     3.495000000     3.562000000     0.287000000
H     3.547000000     2.930000000    -0.431000000
H     4.271000000     3.384000000     0.818000000
O     1.957000000    -4.855000000    -0.838000000
H     1.468000000    -4.661000000    -0.038000000
H     1.805000000    -5.787000000    -0.992000000
O    -1.531000000     3.456000000     3.941000000
H    -0.818000000     2.847000000     3.750000000
H    -1.968000000     3.585000000     3.099000000
O     1.234000000    -1.978000000     4.219000000
H     1.633000000    -2.609000000     3.620000000
H     0.292000000    -2.100000000     4.103000000
O     1.317000000     3.101000000     2.637000000
H     1.888000000     3.352000000     1.911000000
H     1.374000000     2.146000000     2.667000000
O     3.813000000    -0.712000000    -2.451000000
H     3.220000000    -0.813000000    -3.196000000
H     3.794000000    -1.563000000    -2.013000000
O     2.464000000    -1.136000000    -4.700000000
H     2.657000000    -1.018000000    -5.630000000
H     1.694000000    -0.590000000    -4.545000000
O    -4.547000000    -0.321000000     1.428000000
H    -3.690000000    -0.439000000     1.837000000
H    -5.135000000    -0.121000000     2.156000000
O    -6.906000000     1.450000000     1.202000000
H    -6.589000000     0.773000000     0.605000000
H    -6.536000000     1.213000000     2.052000000
O    -5.346000000     3.751000000     0.927000000
H    -5.894000000     3.007000000     1.178000000
H    -5.728000000     4.064000000     0.108000000
O     3.461000000    -1.204000000     5.501000000
H     3.721000000    -1.538000000     6.360000000
H     2.517000000    -1.356000000     5.461000000
O     4.559000000     1.483000000    -1.514000000
H     4.385000000     0.566000000    -1.729000000
H     5.086000000     1.445000000    -0.716000000
O     4.070000000    -6.295000000     0.955000000
H     3.725000000    -6.038000000     1.811000000
H     3.639000000    -5.705000000     0.337000000
O     5.744000000     3.120000000     1.732000000
H     5.540000000     2.416000000     2.347000000
H     5.837000000     3.899000000     2.281000000
O    -2.584000000    -4.356000000    -1.331000000
H    -3.131000000    -3.779000000    -0.798000000
H    -2.198000000    -3.779000000    -1.990000000
O     4.270000000    -0.036000000     3.033000000
H     3.874000000    -0.131000000     3.900000000
H     3.830000000    -0.694000000     2.495000000
O     7.245000000    -3.568000000    -0.361000000
H     7.366000000    -3.417000000    -1.298000000
H     6.482000000    -3.040000000    -0.129000000
O    -2.749000000     3.822000000     1.686000000
H    -3.637000000     3.568000000     1.434000000
H    -2.503000000     4.494000000     1.050000000
O    -3.556000000     7.043000000    -0.180000000
H    -3.128000000     7.738000000     0.318000000
H    -2.844000000     6.455000000    -0.433000000
O     4.914000000    -2.125000000     0.006000000
H     4.143000000    -1.986000000     0.556000000
H     5.435000000    -1.330000000     0.119000000
O     6.260000000     0.427000000     0.742000000
H     7.201000000     0.590000000     0.682000000
H     6.091000000     0.342000000     1.680000000
O     0.039000000    -5.711000000     1.625000000
H     0.176000000    -4.767000000     1.713000000
H    -0.615000000    -5.921000000     2.291000000
