158
-3045.20369
C     0.166000000    -0.623000000    -1.316000000
H     0.235000000    -1.068000000    -2.306000000
C    -1.037000000    -0.169000000    -0.755000000
H    -1.936000000    -0.153000000    -1.366000000
C    -1.009000000     0.552000000     0.449000000
H    -1.928000000     0.840000000     1.001000000
C     0.126000000     0.517000000     1.220000000
H     0.029000000     0.937000000     2.218000000
C     1.313000000    -0.085000000     0.772000000
H     2.163000000    -0.154000000     1.446000000
C     1.315000000    -0.691000000    -0.497000000
C     2.598000000    -1.294000000    -1.015000000
O     3.690000000    -1.140000000    -0.531000000
O     2.498000000    -1.960000000    -2.010000000
O     0.192000000     5.871000000    -1.150000000
H     0.227000000     4.963000000    -1.452000000
H    -0.711000000     6.142000000    -1.312000000
O     1.021000000    -4.052000000    -2.826000000
H     1.464000000    -3.283000000    -2.466000000
H     0.299000000    -3.692000000    -3.341000000
O     3.485000000    -3.820000000     0.819000000
H     4.071000000    -4.481000000     0.450000000
H     3.914000000    -2.986000000     0.629000000
O    -5.241000000     5.756000000    -0.785000000
H    -5.143000000     5.626000000     0.158000000
H    -4.365000000     5.997000000    -1.086000000
O    -6.138000000    -2.886000000    -0.034000000
H    -5.979000000    -3.705000000    -0.503000000
H    -6.394000000    -3.161000000     0.847000000
O     2.713000000     1.952000000    -2.189000000
H     3.025000000     2.744000000    -1.753000000
H     3.373000000     1.772000000    -2.859000000
O     0.358000000    -6.324000000    -1.266000000
H     0.501000000    -5.744000000    -2.013000000
H    -0.120000000    -5.787000000    -0.633000000
O     1.474000000     0.646000000    -6.609000000
H     1.328000000     0.589000000    -5.665000000
H     0.835000000     1.292000000    -6.911000000
O     4.814000000     2.876000000     1.090000000
H     5.323000000     3.670000000     1.253000000
H     4.498000000     2.974000000     0.191000000
O    -1.685000000     1.406000000     4.570000000
H    -1.577000000     0.583000000     4.092000000
H    -2.385000000     1.228000000     5.198000000
O     2.247000000    -4.899000000     3.006000000
H     2.689000000    -4.458000000     2.280000000
H     2.957000000    -5.183000000     3.581000000
O     3.886000000    -4.339000000    -2.988000000
H     2.987000000    -4.017000000    -2.931000000
H     4.417000000    -3.549000000    -3.091000000
O    -0.197000000    -2.019000000    -4.578000000
H    -0.628000000    -1.297000000    -5.036000000
H     0.638000000    -2.127000000    -5.032000000
O     0.577000000    -3.851000000     0.495000000
H     1.466000000    -3.853000000     0.140000000
H     0.672000000    -3.485000000     1.374000000
O    -4.876000000    -0.614000000    -0.972000000
H    -5.431000000    -1.359000000    -0.740000000
H    -4.675000000    -0.745000000    -1.899000000
O    -2.602000000     2.070000000    -3.906000000
H    -2.378000000     1.164000000    -3.695000000
H    -3.271000000     1.999000000    -4.587000000
O     0.374000000     1.275000000    -4.165000000
H    -0.465000000     1.735000000    -4.134000000
H     0.869000000     1.630000000    -3.426000000
O    -3.729000000    -2.409000000     1.471000000
H    -3.272000000    -2.793000000     0.723000000
H    -4.491000000    -1.975000000     1.089000000
O     2.183000000    -3.213000000    -6.052000000
H     2.468000000    -2.539000000    -5.436000000
H     2.840000000    -3.194000000    -6.748000000
O     5.669000000    -2.512000000     3.965000000
H     5.603000000    -1.966000000     3.182000000
H     5.294000000    -1.975000000     4.664000000
O     4.912000000    -0.325000000     5.599000000
H     4.056000000    -0.124000000     5.221000000
H     5.189000000     0.493000000     6.012000000
O     4.725000000    -1.048000000     1.810000000
H     4.566000000    -1.000000000     0.867000000
H     4.129000000    -0.400000000     2.186000000
O    -1.970000000    -0.927000000     3.173000000
H    -1.170000000    -1.259000000     2.766000000
H    -2.665000000    -1.486000000     2.826000000
O     0.231000000     3.183000000    -1.622000000
H     0.785000000     2.407000000    -1.540000000
H    -0.407000000     3.098000000    -0.914000000
O    -4.463000000    -0.047000000    -3.829000000
H    -5.354000000    -0.141000000    -4.167000000
H    -4.511000000     0.699000000    -3.232000000
O     6.070000000    -5.758000000    -3.498000000
H     5.194000000    -5.453000000    -3.262000000
H     5.975000000    -6.092000000    -4.390000000
O     2.791000000    -1.213000000    -4.448000000
H     2.661000000    -1.421000000    -3.522000000
H     3.556000000    -0.638000000    -4.459000000
O     0.251000000     3.262000000     4.891000000
H     0.966000000     2.987000000     4.316000000
H    -0.434000000     2.609000000     4.750000000
O     3.529000000     1.770000000     3.443000000
H     4.118000000     1.764000000     4.198000000
H     4.002000000     2.263000000     2.773000000
O    -4.326000000     2.056000000    -0.290000000
H    -4.075000000     1.151000000    -0.472000000
H    -5.195000000     1.988000000     0.107000000
O    -2.335000000     3.883000000     2.861000000
H    -1.562000000     4.380000000     3.129000000
H    -2.237000000     3.035000000     3.295000000
O     5.498000000    -0.519000000    -4.573000000
H     5.986000000    -0.926000000    -3.857000000
H     5.816000000    -0.961000000    -5.361000000
O     2.626000000    -5.857000000    -5.606000000
H     3.185000000    -6.112000000    -4.873000000
H     2.519000000    -4.911000000    -5.508000000
O    -7.134000000     2.550000000     1.791000000
H    -6.913000000     3.305000000     2.337000000
H    -7.422000000     2.931000000     0.961000000
O    -4.249000000     1.462000000     6.063000000
H    -4.820000000     1.401000000     5.298000000
H    -4.562000000     0.775000000     6.651000000
O     5.047000000     2.016000000    -4.002000000
H     4.840000000     2.496000000    -4.804000000
H     5.013000000     1.095000000    -4.259000000
O     0.707000000    -2.759000000     2.958000000
H     1.155000000    -3.569000000     3.204000000
H     1.152000000    -2.077000000     3.462000000
O    -2.108000000     3.797000000     0.095000000
H    -2.202000000     3.863000000     1.045000000
H    -2.795000000     3.185000000    -0.171000000
O     8.209000000     1.947000000    -0.578000000
H     8.051000000     2.874000000    -0.760000000
H     7.355000000     1.531000000    -0.696000000
O    -1.440000000    -4.710000000    -5.399000000
H    -0.899000000    -5.377000000    -4.976000000
H    -1.282000000    -3.915000000    -4.890000000
O    -2.753000000     5.981000000    -1.911000000
H    -2.505000000     5.105000000    -1.615000000
H    -2.370000000     6.056000000    -2.785000000
O     5.956000000    -2.146000000    -2.211000000
H     6.516000000    -2.781000000    -1.765000000
H     5.347000000    -1.848000000    -1.536000000
O     6.752000000     0.759000000     2.088000000
H     6.200000000    -0.014000000     2.201000000
H     6.171000000     1.415000000     1.703000000
O     1.053000000    -0.745000000     5.803000000
H     1.447000000    -0.307000000     6.558000000
H     0.129000000    -0.496000000     5.838000000
O    -2.162000000    -5.414000000    -2.669000000
H    -1.980000000    -4.581000000    -2.233000000
H    -2.466000000    -5.990000000    -1.967000000
O    -4.526000000     5.183000000     1.939000000
H    -3.622000000     4.987000000     2.189000000
H    -5.047000000     4.911000000     2.695000000
O     5.538000000     1.037000000    -1.386000000
H     5.256000000     1.401000000    -2.224000000
H     4.749000000     0.638000000    -1.020000000
O    -1.703000000    -3.326000000    -0.725000000
H    -1.565000000    -2.391000000    -0.877000000
H    -0.961000000    -3.593000000    -0.182000000
