158
-3060.34722
C     0.034000000    -0.605000000    -1.362000000
H     0.053000000    -1.130000000    -2.313000000
C    -1.150000000    -0.151000000    -0.824000000
H    -2.125000000    -0.325000000    -1.274000000
C    -1.067000000     0.448000000     0.424000000
H    -1.965000000     0.834000000     0.912000000
C     0.173000000     0.686000000     1.060000000
H     0.216000000     1.077000000     2.073000000
C     1.382000000     0.258000000     0.492000000
H     2.334000000     0.488000000     0.964000000
C     1.258000000    -0.495000000    -0.682000000
C     2.543000000    -1.151000000    -1.207000000
O     3.569000000    -1.173000000    -0.531000000
O     2.515000000    -1.804000000    -2.223000000
O     1.358000000     2.904000000     4.847000000
H     0.462000000     2.580000000     4.936000000
H     1.309000000     3.555000000     4.148000000
O    -3.232000000    -3.207000000     4.240000000
H    -2.557000000    -3.630000000     4.770000000
H    -3.094000000    -3.551000000     3.357000000
O     0.657000000    -3.884000000    -2.132000000
H     1.354000000    -3.254000000    -2.315000000
H     0.149000000    -3.921000000    -2.943000000
O     4.543000000    -3.070000000     1.128000000
H     4.965000000    -3.771000000     0.632000000
H     4.125000000    -2.523000000     0.463000000
O    -6.625000000     4.457000000     0.488000000
H    -6.534000000     4.289000000     1.426000000
H    -5.895000000     3.984000000     0.088000000
O     2.163000000     4.039000000    -2.121000000
H     2.295000000     4.724000000    -1.466000000
H     2.979000000     3.538000000    -2.112000000
O    -1.601000000     0.023000000    -6.939000000
H    -1.237000000     0.076000000    -6.055000000
H    -1.521000000     0.912000000    -7.284000000
O     4.208000000     2.014000000     2.224000000
H     5.050000000     2.192000000     2.642000000
H     4.434000000     1.560000000     1.412000000
O    -2.570000000     0.239000000     5.587000000
H    -2.496000000     0.209000000     4.633000000
H    -3.511000000     0.192000000     5.756000000
O     4.951000000    -2.658000000    -3.195000000
H     4.481000000    -3.273000000    -3.757000000
H     4.278000000    -2.300000000    -2.616000000
O     2.008000000     3.668000000     2.198000000
H     1.364000000     3.355000000     1.561000000
H     2.772000000     3.109000000     2.059000000
O    -0.524000000    -2.806000000    -4.458000000
H    -1.154000000    -3.130000000    -5.102000000
H    -0.799000000    -1.906000000    -4.286000000
O     1.923000000    -3.953000000     2.006000000
H     2.760000000    -3.532000000     1.811000000
H     1.453000000    -3.314000000     2.543000000
O    -0.406000000    -0.772000000     6.677000000
H    -1.073000000    -0.265000000     6.216000000
H    -0.663000000    -1.685000000     6.544000000
O     0.019000000     5.029000000     3.552000000
H    -0.180000000     5.906000000     3.880000000
H     0.748000000     5.160000000     2.946000000
O    -4.443000000    -1.730000000    -0.049000000
H    -4.945000000    -2.512000000    -0.281000000
H    -4.691000000    -1.082000000    -0.709000000
O    -2.982000000     2.287000000    -2.892000000
H    -3.139000000     2.973000000    -3.540000000
H    -2.067000000     2.037000000    -3.024000000
O    -0.367000000     0.064000000    -4.464000000
H    -0.440000000     0.696000000    -3.749000000
H     0.554000000    -0.196000000    -4.462000000
O    -2.715000000    -3.059000000     1.548000000
H    -2.057000000    -3.427000000     0.958000000
H    -3.230000000    -2.470000000     0.996000000
O     1.917000000    -2.941000000    -6.316000000
H     1.018000000    -3.268000000    -6.273000000
H     1.977000000    -2.312000000    -5.597000000
O     5.002000000    -0.827000000     2.648000000
H     4.380000000    -0.548000000     3.320000000
H     4.452000000    -1.104000000     1.914000000
O     5.431000000    -4.247000000     3.559000000
H     5.961000000    -3.545000000     3.935000000
H     4.919000000    -3.819000000     2.872000000
O    -2.043000000    -0.765000000     3.250000000
H    -1.374000000    -0.857000000     2.571000000
H    -2.402000000    -1.647000000     3.352000000
O    -0.241000000     2.250000000    -2.792000000
H     0.538000000     2.735000000    -3.063000000
H    -0.242000000     2.312000000    -1.837000000
O    -4.878000000     0.446000000    -1.888000000
H    -5.608000000     1.019000000    -2.124000000
H    -4.096000000     0.937000000    -2.142000000
O    -4.093000000    -4.051000000    -3.244000000
H    -3.882000000    -3.301000000    -3.799000000
H    -3.254000000    -4.493000000    -3.110000000
O     2.177000000    -0.785000000    -4.573000000
H     2.596000000    -1.114000000    -3.778000000
H     2.835000000    -0.215000000    -4.971000000
O    -1.208000000     2.576000000     5.204000000
H    -1.432000000     1.702000000     5.523000000
H    -2.036000000     3.055000000     5.215000000
O     2.667000000     0.418000000     4.176000000
H     2.237000000     0.988000000     4.815000000
H     3.063000000     1.020000000     3.546000000
O     0.367000000    -5.946000000    -5.024000000
H     0.171000000    -5.591000000    -5.891000000
H     0.540000000    -5.175000000    -4.483000000
O    -4.974000000    -0.060000000     2.126000000
H    -4.201000000     0.103000000     2.667000000
H    -4.637000000    -0.524000000     1.360000000
O    -2.962000000     4.822000000     3.443000000
H    -2.093000000     5.038000000     3.103000000
H    -3.097000000     5.438000000     4.164000000
O     0.898000000    -6.523000000    -0.791000000
H     0.784000000    -5.598000000    -1.011000000
H     0.934000000    -6.539000000     0.166000000
O     4.230000000    -4.219000000    -5.508000000
H     4.779000000    -4.463000000    -6.253000000
H     3.449000000    -3.831000000    -5.902000000
O    -7.640000000    -0.480000000     1.088000000
H    -6.701000000    -0.326000000     1.190000000
H    -7.992000000     0.363000000     0.802000000
O    -5.388000000     0.390000000     5.317000000
H    -6.026000000     0.170000000     4.638000000
H    -5.477000000     1.336000000     5.431000000
O     6.270000000    -4.672000000    -1.532000000
H     5.806000000    -3.918000000    -1.896000000
H     6.556000000    -5.170000000    -2.298000000
O     4.432000000     2.385000000    -2.679000000
H     5.121000000     2.948000000    -3.032000000
H     4.338000000     1.687000000    -3.328000000
O     1.184000000    -1.922000000     3.763000000
H     0.490000000    -2.094000000     4.399000000
H     1.764000000    -1.300000000     4.203000000
O    -1.835000000     5.480000000     0.290000000
H    -1.252000000     5.017000000     0.892000000
H    -1.755000000     6.401000000     0.540000000
O     7.726000000     0.870000000    -2.693000000
H     8.527000000     1.110000000    -2.228000000
H     7.021000000     1.092000000    -2.085000000
O    -4.082000000     3.740000000    -0.726000000
H    -3.425000000     4.387000000    -0.470000000
H    -3.604000000     3.114000000    -1.270000000
O     6.251000000    -0.847000000    -0.680000000
H     5.312000000    -1.031000000    -0.683000000
H     6.663000000    -1.708000000    -0.600000000
O    -4.483000000     0.116000000    -5.271000000
H    -3.841000000     0.152000000    -4.562000000
H    -5.087000000    -0.581000000    -5.012000000
O     5.807000000    -1.067000000    -5.580000000
H     5.482000000    -1.674000000    -4.915000000
H     6.668000000    -0.800000000    -5.260000000
O    -5.485000000     4.040000000     3.197000000
H    -4.587000000     4.258000000     2.948000000
H    -5.410000000     3.703000000     4.090000000
O     5.475000000     1.768000000    -0.219000000
H     5.076000000     1.945000000    -1.071000000
H     5.707000000     0.840000000    -0.251000000
O    -0.527000000    -4.087000000     0.373000000
H    -0.165000000    -3.677000000    -0.413000000
H     0.221000000    -4.173000000     0.964000000
