158
-3034.14528
C    -0.137000000    -0.941000000    -1.117000000
H    -0.434000000    -1.538000000    -1.976000000
C    -1.069000000    -0.008000000    -0.668000000
H    -2.057000000     0.080000000    -1.114000000
C    -0.789000000     0.857000000     0.354000000
H    -1.511000000     1.571000000     0.748000000
C     0.398000000     0.815000000     1.007000000
H     0.521000000     1.485000000     1.855000000
C     1.393000000    -0.113000000     0.596000000
H     2.328000000    -0.197000000     1.143000000
C     1.111000000    -1.012000000    -0.457000000
C     2.122000000    -2.028000000    -0.956000000
O     3.215000000    -2.105000000    -0.461000000
O     1.926000000    -2.751000000    -1.899000000
O     6.588000000     0.869000000     3.797000000
H     6.024000000     1.447000000     3.283000000
H     7.190000000     0.490000000     3.156000000
O    -2.732000000     2.178000000    -3.148000000
H    -2.747000000     2.956000000    -3.705000000
H    -1.817000000     1.896000000    -3.157000000
O     1.666000000    -5.573000000    -1.537000000
H     1.827000000    -4.651000000    -1.737000000
H     0.733000000    -5.697000000    -1.715000000
O     2.418000000    -8.195000000    -0.777000000
H     2.207000000    -7.284000000    -0.980000000
H     2.336000000    -8.652000000    -1.614000000
O     6.308000000    -6.334000000    -0.889000000
H     6.988000000    -6.041000000    -0.283000000
H     5.729000000    -5.578000000    -0.983000000
O    -1.794000000     3.413000000     3.968000000
H    -1.660000000     3.579000000     3.035000000
H    -1.062000000     3.857000000     4.397000000
O    -4.315000000    -1.040000000    -2.014000000
H    -4.218000000    -0.652000000    -2.884000000
H    -3.904000000    -1.901000000    -2.088000000
O     2.321000000     0.080000000     4.406000000
H     2.474000000     1.001000000     4.197000000
H     2.681000000    -0.030000000     5.286000000
O    -4.121000000     2.485000000     3.601000000
H    -3.186000000     2.657000000     3.715000000
H    -4.364000000     2.989000000     2.824000000
O     4.625000000    -4.244000000    -1.457000000
H     4.017000000    -3.635000000    -1.038000000
H     4.245000000    -4.406000000    -2.320000000
O     3.962000000     1.258000000    -3.882000000
H     4.053000000     0.443000000    -3.388000000
H     3.582000000     0.990000000    -4.719000000
O    -2.477000000     4.656000000    -4.343000000
H    -1.919000000     5.050000000    -3.672000000
H    -2.808000000     5.400000000    -4.846000000
O    -3.524000000     0.135000000    -4.462000000
H    -2.744000000    -0.275000000    -4.834000000
H    -3.199000000     0.930000000    -4.039000000
O     1.172000000    -2.264000000     4.120000000
H     1.805000000    -2.609000000     3.490000000
H     1.403000000    -1.339000000     4.208000000
O    -2.776000000    -3.015000000     0.407000000
H    -2.381000000    -2.333000000    -0.136000000
H    -2.138000000    -3.166000000     1.104000000
O    -0.219000000     6.222000000     2.873000000
H    -0.243000000     5.366000000     2.447000000
H     0.251000000     6.784000000     2.257000000
O    -0.992000000    -1.279000000    -4.872000000
H    -0.445000000    -0.692000000    -5.394000000
H    -0.410000000    -2.002000000    -4.637000000
O    -0.859000000    -4.019000000     2.496000000
H    -0.452000000    -3.473000000     3.168000000
H    -0.126000000    -4.330000000     1.964000000
O     3.027000000    -2.296000000    -5.844000000
H     2.618000000    -1.907000000    -6.617000000
H     2.291000000    -2.583000000    -5.303000000
O     3.079000000    -3.161000000     2.279000000
H     3.610000000    -3.000000000     3.059000000
H     3.309000000    -2.449000000     1.681000000
O     2.225000000     4.068000000    -0.023000000
H     1.453000000     4.151000000    -0.583000000
H     2.697000000     3.314000000    -0.376000000
O     2.343000000     2.611000000     4.705000000
H     1.774000000     3.377000000     4.626000000
H     3.163000000     2.957000000     5.057000000
O    -4.084000000     4.116000000    -1.384000000
H    -4.786000000     3.474000000    -1.492000000
H    -3.362000000     3.771000000    -1.910000000
O     0.098000000     1.788000000    -3.847000000
H     0.670000000     2.408000000    -4.298000000
H     0.691000000     1.116000000    -3.510000000
O    -2.996000000    -3.059000000    -3.148000000
H    -2.888000000    -4.002000000    -3.269000000
H    -2.761000000    -2.679000000    -3.994000000
O     0.798000000    -3.007000000    -4.048000000
H     1.303000000    -2.832000000    -3.254000000
H     0.173000000    -3.684000000    -3.790000000
O    -1.060000000    -5.004000000    -3.780000000
H    -0.912000000    -5.601000000    -3.046000000
H    -1.179000000    -5.579000000    -4.536000000
O    -3.711000000    -1.890000000     3.549000000
H    -2.974000000    -1.404000000     3.178000000
H    -4.362000000    -1.218000000     3.753000000
O     2.469000000     4.662000000     2.765000000
H     2.251000000     4.691000000     1.833000000
H     2.598000000     3.733000000     2.953000000
O     4.075000000     2.985000000    -1.721000000
H     4.071000000     2.357000000    -2.443000000
H     4.102000000     3.841000000    -2.148000000
O     1.363000000    -4.762000000     1.201000000
H     1.579000000    -5.207000000     0.382000000
H     2.122000000    -4.207000000     1.380000000
O    -0.111000000     3.871000000    -1.488000000
H     0.233000000     4.265000000    -2.290000000
H    -0.138000000     2.933000000    -1.674000000
O    -4.782000000     4.380000000     1.546000000
H    -4.489000000     4.408000000     0.635000000
H    -5.254000000     5.204000000     1.670000000
O     5.505000000    -1.864000000     0.819000000
H     4.596000000    -1.870000000     0.520000000
H     6.010000000    -2.142000000     0.055000000
O    -5.725000000     2.060000000    -1.852000000
H    -4.929000000     1.620000000    -2.150000000
H    -6.439000000     1.520000000    -2.192000000
O    -5.516000000     0.037000000     3.974000000
H    -5.580000000     0.147000000     4.923000000
H    -5.183000000     0.877000000     3.658000000
O    -5.509000000    -0.749000000     0.614000000
H    -4.787000000    -0.615000000     0.001000000
H    -5.167000000    -1.373000000     1.255000000
O     0.395000000     4.706000000     5.163000000
H     0.299000000     4.986000000     6.074000000
H     0.386000000     5.520000000     4.660000000
O     4.781000000    -0.909000000    -2.684000000
H     4.096000000    -1.470000000    -2.320000000
H     5.584000000    -1.201000000    -2.254000000
O     7.092000000    -1.953000000     3.065000000
H     6.417000000    -1.891000000     2.389000000
H     7.749000000    -1.306000000     2.808000000
O     7.218000000    -1.736000000    -1.670000000
H     7.634000000    -2.470000000    -1.219000000
H     7.529000000    -1.802000000    -2.573000000
O     4.164000000    -4.843000000    -4.441000000
H     4.105000000    -3.888000000    -4.433000000
H     3.425000000    -5.123000000    -4.982000000
O    -0.948000000    -6.468000000    -1.209000000
H    -1.712000000    -6.832000000    -1.656000000
H    -1.292000000    -6.133000000    -0.381000000
O    -1.146000000     4.137000000     1.226000000
H    -1.932000000     4.668000000     1.097000000
H    -0.756000000     4.070000000     0.354000000
O     4.281000000    -1.587000000     4.194000000
H     5.123000000    -1.146000000     4.080000000
H     3.630000000    -0.927000000     3.956000000
O    -1.594000000    -0.793000000     2.586000000
H    -1.234000000    -0.072000000     2.070000000
H    -0.826000000    -1.253000000     2.924000000
O    -6.909000000     1.572000000     1.273000000
H    -6.332000000     0.834000000     1.078000000
H    -6.961000000     2.059000000     0.450000000
O    -6.721000000    -1.505000000    -3.100000000
H    -5.842000000    -1.471000000    -2.723000000
H    -7.297000000    -1.657000000    -2.350000000
