158
-3041.67726
C     0.645000000    -0.600000000    -1.176000000
H     1.055000000    -1.074000000    -2.064000000
C    -0.107000000     0.512000000    -1.196000000
H    -0.088000000     0.982000000    -2.176000000
C    -0.663000000     1.088000000    -0.035000000
H    -1.292000000     1.940000000    -0.096000000
C    -0.513000000     0.434000000     1.177000000
H    -0.859000000     0.894000000     2.098000000
C     0.191000000    -0.821000000     1.229000000
H     0.250000000    -1.361000000     2.170000000
C     0.751000000    -1.318000000     0.041000000
C     1.509000000    -2.646000000     0.121000000
O     1.506000000    -3.298000000     1.177000000
O     2.297000000    -2.965000000    -0.801000000
O    -0.533000000    -7.510000000     1.054000000
H    -0.124000000    -7.806000000     1.868000000
H    -0.039000000    -6.727000000     0.809000000
O     2.106000000     1.861000000    -3.555000000
H     2.074000000     2.789000000    -3.325000000
H     1.525000000     1.781000000    -4.312000000
O     0.191000000     5.627000000    -1.360000000
H     0.735000000     5.849000000    -0.604000000
H     0.809000000     5.297000000    -2.011000000
O     0.835000000    -5.480000000    -0.304000000
H     1.362000000    -4.698000000    -0.139000000
H    -0.064000000    -5.156000000    -0.361000000
O     0.748000000    -7.633000000     3.340000000
H     1.258000000    -6.825000000     3.306000000
H     1.324000000    -8.262000000     3.775000000
O     5.914000000    -5.549000000    -1.150000000
H     5.087000000    -6.016000000    -1.030000000
H     6.557000000    -6.072000000    -0.671000000
O    -1.690000000     3.504000000     3.311000000
H    -1.296000000     3.274000000     4.153000000
H    -2.185000000     2.725000000     3.058000000
O     1.822000000     4.731000000    -3.361000000
H     2.019000000     4.644000000    -4.293000000
H     2.538000000     5.263000000    -3.014000000
O    -2.893000000     2.415000000    -3.161000000
H    -3.053000000     3.328000000    -2.923000000
H    -2.761000000     2.435000000    -4.109000000
O     4.579000000    -5.740000000     1.870000000
H     3.700000000    -6.062000000     1.669000000
H     4.529000000    -5.465000000     2.786000000
O     3.105000000    -6.940000000    -1.349000000
H     3.142000000    -7.046000000    -2.300000000
H     2.247000000    -6.548000000    -1.186000000
O    -3.606000000     6.436000000    -1.045000000
H    -2.933000000     7.047000000    -1.345000000
H    -4.428000000     6.808000000    -1.364000000
O     2.892000000     0.802000000     2.006000000
H     3.735000000     0.364000000     1.888000000
H     2.465000000     0.313000000     2.709000000
O    -2.185000000     4.411000000    -0.079000000
H    -2.711000000     5.143000000    -0.404000000
H    -1.349000000     4.496000000    -0.537000000
O    -4.005000000     0.643000000    -0.932000000
H    -4.287000000     0.175000000    -1.719000000
H    -3.263000000     1.173000000    -1.222000000
O     2.702000000    -1.622000000     5.598000000
H     2.970000000    -2.008000000     4.764000000
H     3.378000000    -0.971000000     5.789000000
O    -2.255000000    -3.365000000     2.449000000
H    -1.786000000    -3.564000000     1.639000000
H    -3.055000000    -2.925000000     2.161000000
O    -2.307000000    -0.691000000    -3.351000000
H    -2.444000000     0.213000000    -3.069000000
H    -3.189000000    -1.041000000    -3.472000000
O    -0.916000000    -3.983000000     4.763000000
H    -1.507000000    -3.922000000     4.012000000
H    -1.429000000    -4.433000000     5.435000000
O     2.528000000     2.226000000    -0.808000000
H     2.078000000     1.706000000    -0.142000000
H     2.277000000     1.821000000    -1.638000000
O    -4.462000000     6.274000000     1.714000000
H    -3.954000000     6.266000000     0.903000000
H    -4.967000000     5.462000000     1.689000000
O     3.268000000    -2.223000000     2.982000000
H     3.991000000    -2.762000000     2.661000000
H     2.568000000    -2.356000000     2.343000000
O    -1.998000000     6.392000000     3.038000000
H    -1.651000000     5.515000000     2.871000000
H    -2.739000000     6.474000000     2.437000000
O     1.777000000     5.926000000     0.765000000
H     1.752000000     5.588000000     1.660000000
H     2.709000000     6.048000000     0.582000000
O    -3.895000000    -1.080000000     1.400000000
H    -3.863000000    -0.165000000     1.679000000
H    -3.460000000    -1.085000000     0.547000000
O     1.825000000    -3.424000000    -3.433000000
H     1.879000000    -3.262000000    -2.491000000
H     2.709000000    -3.693000000    -3.681000000
O    -1.109000000    -3.248000000    -3.461000000
H    -0.362000000    -2.920000000    -3.961000000
H    -1.558000000    -2.460000000    -3.158000000
O     0.670000000     2.770000000     4.950000000
H     1.452000000     2.861000000     5.493000000
H     0.989000000     2.862000000     4.052000000
O     1.678000000    -5.029000000     3.296000000
H     2.083000000    -4.504000000     2.607000000
H     0.778000000    -4.705000000     3.347000000
O     1.355000000     3.113000000     2.357000000
H     1.917000000     2.358000000     2.179000000
H     0.498000000     2.860000000     2.014000000
O     3.896000000    -0.015000000    -4.181000000
H     3.211000000     0.619000000    -3.966000000
H     4.235000000     0.277000000    -5.027000000
O     5.143000000     2.168000000    -1.225000000
H     5.190000000     1.265000000    -1.540000000
H     4.216000000     2.305000000    -1.028000000
O     5.267000000    -3.279000000     1.017000000
H     4.855000000    -3.238000000     0.154000000
H     5.396000000    -4.213000000     1.178000000
O    -2.674000000    -1.265000000     4.483000000
H    -1.771000000    -1.235000000     4.799000000
H    -2.606000000    -1.615000000     3.595000000
O    -0.693000000    -0.781000000    -5.723000000
H    -0.318000000     0.087000000    -5.575000000
H    -1.381000000    -0.861000000    -5.061000000
O    -5.422000000     3.951000000     3.745000000
H    -5.194000000     4.162000000     4.650000000
H    -4.810000000     3.257000000     3.500000000
O    -3.558000000     1.368000000     4.162000000
H    -3.421000000     0.475000000     4.479000000
H    -3.304000000     1.925000000     4.899000000
O     5.325000000    -0.218000000     1.367000000
H     5.164000000    -1.145000000     1.541000000
H     4.930000000    -0.063000000     0.510000000
O     4.551000000    -2.922000000    -4.792000000
H     5.113000000    -3.617000000    -4.448000000
H     4.600000000    -2.228000000    -4.134000000
O    -6.858000000     4.362000000     0.761000000
H    -5.984000000     3.972000000     0.764000000
H    -7.353000000     3.845000000     1.397000000
O     7.280000000    -1.732000000    -0.690000000
H     8.078000000    -1.658000000    -0.165000000
H     6.596000000    -1.945000000    -0.055000000
O     1.296000000    -4.194000000     6.385000000
H     1.797000000    -3.655000000     5.773000000
H     0.545000000    -4.498000000     5.876000000
O     4.111000000    -0.751000000    -1.182000000
H     4.328000000    -0.738000000    -2.114000000
H     3.464000000    -1.451000000    -1.096000000
O    -1.715000000    -4.212000000    -0.564000000
H    -2.464000000    -4.653000000    -0.965000000
H    -1.420000000    -3.589000000    -1.227000000
O     0.858000000     5.505000000     3.495000000
H     0.046000000     5.724000000     3.953000000
H     0.693000000     4.643000000     3.114000000
O     0.275000000     1.721000000    -5.409000000
H    -0.598000000     2.075000000    -5.574000000
H     0.871000000     2.357000000    -5.805000000
O    -0.023000000    -1.499000000     5.384000000
H     0.058000000    -2.444000000     5.514000000
H     0.824000000    -1.233000000     5.027000000
O    -4.333000000     3.064000000     0.648000000
H    -3.559000000     3.516000000     0.311000000
H    -4.402000000     2.275000000     0.111000000
