158
-3020.87716
C    -0.077000000    -0.394000000    -1.431000000
H    -0.110000000    -0.472000000    -2.515000000
C    -0.709000000     0.667000000    -0.819000000
H    -1.215000000     1.441000000    -1.390000000
C    -0.550000000     0.957000000     0.515000000
H    -1.008000000     1.842000000     0.961000000
C     0.155000000     0.092000000     1.292000000
H     0.235000000     0.304000000     2.355000000
C     0.727000000    -1.039000000     0.705000000
H     1.347000000    -1.674000000     1.332000000
C     0.635000000    -1.284000000    -0.652000000
C     1.257000000    -2.472000000    -1.328000000
O     2.157000000    -3.105000000    -0.731000000
O     1.100000000    -2.783000000    -2.485000000
O     3.916000000    -2.672000000    -3.302000000
H     2.979000000    -2.701000000    -3.105000000
H     4.188000000    -1.791000000    -3.046000000
O    -0.933000000     7.228000000    -1.667000000
H    -0.334000000     6.626000000    -1.225000000
H    -0.485000000     8.074000000    -1.640000000
O     2.799000000    -0.041000000    -4.376000000
H     2.352000000    -0.784000000    -4.782000000
H     2.227000000     0.707000000    -4.549000000
O     2.311000000    -5.158000000    -5.334000000
H     1.412000000    -5.487000000    -5.299000000
H     2.230000000    -4.222000000    -5.151000000
O    -1.491000000     2.097000000     7.066000000
H    -0.743000000     1.624000000     7.429000000
H    -1.246000000     2.273000000     6.158000000
O     3.660000000    -5.145000000    -1.316000000
H     3.177000000    -4.537000000    -0.756000000
H     4.041000000    -4.590000000    -1.998000000
O    -3.964000000     3.020000000     3.752000000
H    -4.555000000     2.267000000     3.744000000
H    -4.009000000     3.370000000     2.862000000
O    -2.214000000    -3.003000000     4.682000000
H    -2.080000000    -2.651000000     3.802000000
H    -3.162000000    -2.968000000     4.812000000
O    -0.790000000     1.587000000    -4.386000000
H    -0.156000000     2.182000000    -3.985000000
H    -1.131000000     2.072000000    -5.138000000
O     1.166000000     3.493000000    -3.886000000
H     1.397000000     3.330000000    -4.801000000
H     0.890000000     4.409000000    -3.868000000
O     0.162000000    -0.516000000     4.755000000
H     0.513000000    -1.318000000     4.369000000
H    -0.262000000    -0.805000000     5.563000000
O     2.571000000    -7.211000000    -2.993000000
H     3.170000000    -6.868000000    -2.330000000
H     1.875000000    -6.556000000    -3.048000000
O    -1.247000000     4.595000000    -0.134000000
H    -2.111000000     4.296000000     0.150000000
H    -0.651000000     3.895000000     0.133000000
O     2.637000000     5.687000000     2.792000000
H     2.471000000     6.448000000     3.349000000
H     3.586000000     5.689000000     2.661000000
O    -3.235000000    -2.089000000    -2.821000000
H    -2.408000000    -1.864000000    -3.248000000
H    -3.591000000    -2.803000000    -3.350000000
O     4.040000000     1.383000000     2.490000000
H     3.276000000     1.802000000     2.884000000
H     4.783000000     1.903000000     2.795000000
O     1.081000000    -3.052000000     3.760000000
H     1.861000000    -3.503000000     4.083000000
H     0.968000000    -3.379000000     2.867000000
O    -4.245000000     1.171000000    -0.792000000
H    -4.270000000     0.298000000    -0.400000000
H    -4.141000000     1.010000000    -1.730000000
O     0.443000000    -5.582000000    -2.620000000
H    -0.460000000    -5.446000000    -2.909000000
H     0.845000000    -4.715000000    -2.673000000
O    -4.046000000    -1.691000000    -0.123000000
H    -3.661000000    -1.914000000    -0.971000000
H    -4.105000000    -2.527000000     0.340000000
O     0.006000000     6.011000000     4.656000000
H     0.339000000     6.689000000     4.069000000
H    -0.765000000     5.663000000     4.209000000
O     3.588000000    -4.619000000     3.822000000
H     3.904000000    -4.892000000     4.684000000
H     3.084000000    -5.369000000     3.504000000
O     1.368000000    -4.384000000     1.498000000
H     1.799000000    -5.209000000     1.722000000
H     1.744000000    -4.139000000     0.652000000
O     6.001000000    -2.939000000     2.317000000
H     5.502000000    -2.724000000     1.529000000
H     5.449000000    -3.565000000     2.785000000
O     1.522000000     6.216000000     0.395000000
H     1.835000000     7.062000000     0.075000000
H     1.939000000     6.114000000     1.251000000
O     1.403000000     3.587000000     0.859000000
H     1.539000000     3.186000000     1.718000000
H     1.376000000     4.527000000     1.036000000
O    -3.066000000     5.793000000     4.149000000
H    -2.936000000     5.871000000     5.094000000
H    -3.365000000     4.893000000     4.022000000
O     5.036000000    -3.242000000    -5.752000000
H     4.513000000    -3.021000000    -4.981000000
H     4.444000000    -3.102000000    -6.491000000
O    -1.291000000     6.836000000     1.959000000
H    -1.824000000     6.176000000     2.401000000
H    -1.034000000     6.424000000     1.134000000
O    -0.574000000    -5.692000000     3.396000000
H    -1.040000000    -6.153000000     2.698000000
H    -0.906000000    -4.795000000     3.354000000
O    -4.685000000    -1.079000000     4.381000000
H    -3.959000000    -1.004000000     3.761000000
H    -4.523000000    -0.390000000     5.024000000
O     4.521000000     0.671000000    -2.412000000
H     4.044000000     0.925000000    -1.622000000
H     3.837000000     0.426000000    -3.036000000
O    -1.498000000    -3.469000000     1.833000000
H    -0.683000000    -3.850000000     1.506000000
H    -1.307000000    -2.536000000     1.923000000
O     2.218000000     2.681000000     3.790000000
H     1.431000000     2.458000000     4.287000000
H     2.220000000     3.638000000     3.762000000
O     6.575000000    -3.335000000    -1.074000000
H     5.865000000    -2.798000000    -0.724000000
H     7.335000000    -3.108000000    -0.538000000
O     4.350000000    -2.079000000     0.108000000
H     3.571000000    -2.596000000    -0.099000000
H     4.017000000    -1.194000000     0.254000000
O    -2.902000000    -0.699000000     2.321000000
H    -3.652000000    -0.644000000     1.729000000
H    -2.168000000    -0.361000000     1.809000000
O    -5.624000000     4.964000000     2.176000000
H    -6.462000000     4.713000000     1.786000000
H    -5.797000000     4.989000000     3.118000000
O    -3.615000000     3.496000000     0.500000000
H    -4.422000000     4.010000000     0.533000000
H    -3.855000000     2.703000000     0.021000000
O    -5.928000000     1.483000000     2.646000000
H    -6.642000000     1.718000000     3.238000000
H    -6.299000000     0.808000000     2.078000000
O     3.980000000    -0.547000000     4.693000000
H     3.264000000    -0.024000000     5.055000000
H     4.322000000    -0.019000000     3.972000000
O    -3.967000000     4.837000000    -2.557000000
H    -3.383000000     4.720000000    -1.807000000
H    -4.844000000     4.869000000    -2.175000000
O     4.412000000    -7.067000000     0.826000000
H     3.626000000    -7.349000000     1.295000000
H     4.080000000    -6.560000000     0.086000000
O     3.019000000     1.025000000    -0.073000000
H     3.413000000     1.089000000     0.797000000
H     2.093000000     1.222000000     0.069000000
O     1.197000000    -2.573000000    -5.175000000
H     1.212000000    -2.781000000    -4.240000000
H     0.285000000    -2.342000000    -5.354000000
O    -1.490000000    -1.033000000    -4.746000000
H    -2.201000000    -1.122000000    -5.381000000
H    -1.378000000    -0.087000000    -4.643000000
O    -0.808000000     2.209000000     4.357000000
H    -0.575000000     1.281000000     4.354000000
H    -1.613000000     2.255000000     3.841000000
O     2.393000000     3.960000000    -1.642000000
H     1.810000000     3.689000000    -0.934000000
H     1.986000000     3.611000000    -2.435000000
