158
-3038.71745
C    -0.018000000    -0.241000000    -1.447000000
H    -0.146000000    -0.311000000    -2.524000000
C    -0.083000000     0.981000000    -0.822000000
H    -0.241000000     1.910000000    -1.364000000
C    -0.143000000     1.011000000     0.586000000
H    -0.145000000     1.901000000     1.178000000
C    -0.104000000    -0.117000000     1.317000000
H    -0.167000000    -0.026000000     2.398000000
C    -0.024000000    -1.352000000     0.665000000
H    -0.085000000    -2.225000000     1.310000000
C     0.164000000    -1.399000000    -0.731000000
C     0.439000000    -2.679000000    -1.380000000
O     1.004000000    -3.532000000    -0.757000000
O     0.224000000    -2.768000000    -2.586000000
O     4.841000000    -1.460000000    -3.090000000
H     4.508000000    -2.216000000    -2.606000000
H     4.098000000    -0.858000000    -3.136000000
O     2.660000000     0.129000000    -3.434000000
H     1.889000000    -0.439000000    -3.437000000
H     2.602000000     0.616000000    -4.256000000
O     3.206000000    -4.173000000    -5.514000000
H     3.819000000    -3.852000000    -6.176000000
H     2.656000000    -3.417000000    -5.311000000
O     0.589000000    -7.570000000    -0.834000000
H     1.507000000    -7.791000000    -0.676000000
H     0.397000000    -6.878000000    -0.202000000
O    -0.664000000    -7.535000000     2.295000000
H    -0.456000000    -6.793000000     1.727000000
H    -1.582000000    -7.730000000     2.107000000
O     3.390000000    -3.816000000    -2.539000000
H     2.513000000    -4.030000000    -2.220000000
H     3.340000000    -3.951000000    -3.485000000
O    -3.017000000     3.264000000     1.758000000
H    -3.842000000     3.094000000     2.212000000
H    -2.969000000     2.585000000     1.085000000
O     0.604000000     1.823000000    -5.524000000
H     1.195000000     1.814000000    -6.276000000
H     0.484000000     2.752000000    -5.324000000
O     0.976000000     5.435000000    -3.097000000
H     0.380000000     5.581000000    -2.362000000
H     0.486000000     4.870000000    -3.695000000
O    -1.319000000    -0.304000000     5.410000000
H    -1.447000000    -1.129000000     4.941000000
H    -1.426000000     0.371000000     4.740000000
O     1.507000000    -7.513000000    -3.341000000
H     1.146000000    -7.487000000    -2.455000000
H     1.392000000    -6.622000000    -3.672000000
O    -0.882000000     4.825000000    -0.874000000
H    -1.248000000     5.320000000    -0.141000000
H    -0.168000000     4.317000000    -0.489000000
O    -2.433000000    -2.444000000    -2.561000000
H    -2.410000000    -1.704000000    -3.168000000
H    -1.548000000    -2.808000000    -2.593000000
O     4.701000000     1.835000000     2.798000000
H     4.150000000     2.616000000     2.855000000
H     5.418000000     2.090000000     2.217000000
O     2.246000000     3.753000000     3.620000000
H     1.302000000     3.915000000     3.620000000
H     2.629000000     4.571000000     3.935000000
O     1.917000000    -3.177000000     2.971000000
H     1.716000000    -2.651000000     3.745000000
H     2.750000000    -3.601000000     3.180000000
O    -1.947000000    -2.457000000     3.852000000
H    -2.508000000    -1.837000000     3.385000000
H    -1.592000000    -3.022000000     3.166000000
O    -3.429000000     1.091000000    -2.189000000
H    -3.428000000     0.788000000    -3.097000000
H    -4.139000000     1.731000000    -2.150000000
O    -0.998000000    -2.418000000    -6.691000000
H    -1.127000000    -1.588000000    -7.151000000
H    -1.878000000    -2.681000000    -6.422000000
O     0.308000000    -5.193000000    -4.353000000
H    -0.542000000    -5.570000000    -4.126000000
H     0.345000000    -4.371000000    -3.864000000
O    -3.306000000    -2.334000000     0.058000000
H    -3.023000000    -2.291000000    -0.855000000
H    -3.103000000    -3.230000000     0.329000000
O     2.850000000    -1.304000000     5.178000000
H     2.396000000    -1.323000000     6.021000000
H     3.550000000    -1.951000000     5.268000000
O    -0.198000000    -5.346000000     0.574000000
H    -1.072000000    -4.991000000     0.408000000
H     0.398000000    -4.700000000     0.196000000
O     1.428000000     7.497000000     2.681000000
H     0.525000000     7.380000000     2.386000000
H     1.948000000     7.471000000     1.878000000
O     1.475000000     3.873000000     0.678000000
H     1.893000000     3.119000000     0.261000000
H     2.116000000     4.178000000     1.319000000
O    -0.097000000     2.251000000     6.749000000
H    -0.499000000     1.728000000     6.055000000
H     0.834000000     2.034000000     6.704000000
O    -0.892000000     7.717000000     1.408000000
H    -1.620000000     7.112000000     1.265000000
H    -1.237000000     8.572000000     1.150000000
O     2.630000000     1.834000000    -0.609000000
H     3.056000000     1.054000000    -0.255000000
H     1.903000000     1.494000000    -1.131000000
O    -3.566000000    -1.166000000     2.374000000
H    -3.323000000    -1.386000000     1.475000000
H    -4.110000000    -0.383000000     2.291000000
O    -0.748000000     4.393000000     3.402000000
H    -1.375000000     4.967000000     3.842000000
H    -1.100000000     4.288000000     2.518000000
O    -1.620000000    -5.889000000    -2.234000000
H    -2.261000000    -5.643000000    -1.566000000
H    -0.837000000    -6.127000000    -1.738000000
O     3.306000000    -3.177000000     0.474000000
H     2.937000000    -3.681000000     1.200000000
H     2.613000000    -3.166000000    -0.186000000
O    -3.082000000     0.823000000     0.463000000
H    -2.294000000     0.413000000     0.820000000
H    -2.973000000     0.767000000    -0.486000000
O     3.470000000    -7.158000000    -0.530000000
H     4.116000000    -7.263000000    -1.229000000
H     3.525000000    -6.234000000    -0.289000000
O    -4.436000000     5.597000000    -1.114000000
H    -3.914000000     5.371000000    -1.883000000
H    -4.925000000     4.800000000    -0.913000000
O     0.178000000    -4.865000000    -7.035000000
H    -0.183000000    -4.003000000    -7.245000000
H     0.236000000    -4.874000000    -6.080000000
O     3.786000000    -5.722000000     2.422000000
H     3.193000000    -6.410000000     2.122000000
H     4.642000000    -5.975000000     2.076000000
O    -2.680000000     5.812000000     0.931000000
H    -2.831000000     4.927000000     1.266000000
H    -3.297000000     5.901000000     0.205000000
O    -4.946000000     2.017000000     3.797000000
H    -5.137000000     1.342000000     3.145000000
H    -4.724000000     1.528000000     4.590000000
O    -2.528000000     5.153000000    -3.089000000
H    -1.996000000     4.657000000    -2.467000000
H    -2.919000000     4.488000000    -3.655000000
O     5.570000000    -4.063000000    -0.725000000
H     4.981000000    -4.336000000    -1.428000000
H     5.046000000    -3.465000000    -0.192000000
O     3.712000000    -0.513000000     0.770000000
H     3.729000000    -1.469000000     0.808000000
H     3.668000000    -0.237000000     1.685000000
O     1.431000000    -2.033000000    -4.961000000
H     1.011000000    -2.354000000    -4.164000000
H     0.799000000    -2.218000000    -5.656000000
O    -2.862000000    -5.039000000     0.662000000
H    -3.710000000    -4.961000000     0.225000000
H    -3.055000000    -5.501000000     1.478000000
O    -1.762000000     0.835000000    -5.112000000
H    -1.957000000     1.514000000    -5.759000000
H    -0.826000000     0.932000000    -4.938000000
O    -1.554000000     1.746000000     3.850000000
H    -1.075000000     2.552000000     3.656000000
H    -2.419000000     1.883000000     3.463000000
O    -4.072000000    -0.318000000    -4.480000000
H    -3.241000000     0.062000000    -4.763000000
H    -4.560000000    -0.459000000    -5.291000000
O     4.494000000     3.347000000    -1.962000000
H     4.309000000     3.145000000    -2.880000000
H     3.806000000     2.895000000    -1.474000000
