158
-3026.93187
C     1.022000000    -0.529000000    -0.813000000
H     1.681000000    -0.865000000    -1.610000000
C     0.883000000     0.855000000    -0.587000000
H     1.502000000     1.633000000    -1.026000000
C    -0.111000000     1.161000000     0.277000000
H    -0.279000000     2.197000000     0.523000000
C    -0.963000000     0.220000000     0.877000000
H    -1.685000000     0.548000000     1.621000000
C    -0.778000000    -1.166000000     0.596000000
H    -1.469000000    -1.914000000     0.976000000
C     0.231000000    -1.516000000    -0.269000000
C     0.434000000    -2.954000000    -0.664000000
O    -0.283000000    -3.852000000    -0.231000000
O     1.466000000    -3.280000000    -1.336000000
O     5.649000000    -1.635000000    -1.569000000
H     5.163000000    -1.100000000    -2.197000000
H     5.118000000    -2.424000000    -1.465000000
O     3.855000000    -0.633000000    -3.581000000
H     4.408000000    -0.906000000    -4.313000000
H     3.022000000    -1.081000000    -3.731000000
O     4.265000000    -3.505000000    -5.476000000
H     4.667000000    -2.647000000    -5.618000000
H     3.457000000    -3.315000000    -5.000000000
O     3.981000000    -3.807000000    -1.227000000
H     3.095000000    -3.512000000    -1.436000000
H     3.948000000    -4.026000000    -0.296000000
O    -5.033000000     4.119000000    -1.194000000
H    -5.143000000     4.574000000    -0.359000000
H    -4.701000000     4.789000000    -1.791000000
O     1.686000000     1.180000000    -6.198000000
H     1.957000000     1.938000000    -6.716000000
H     2.506000000     0.789000000    -5.899000000
O     4.440000000     1.732000000    -2.178000000
H     3.842000000     1.653000000    -1.435000000
H     4.541000000     0.837000000    -2.501000000
O    -4.050000000    -2.120000000     5.154000000
H    -3.961000000    -2.897000000     4.601000000
H    -3.422000000    -1.495000000     4.792000000
O    -0.985000000    -6.920000000    -3.714000000
H    -1.376000000    -6.069000000    -3.913000000
H    -0.110000000    -6.711000000    -3.387000000
O     6.266000000    -4.929000000    -2.246000000
H     6.401000000    -4.759000000    -3.178000000
H     5.348000000    -4.709000000    -2.092000000
O     2.580000000     6.128000000    -3.269000000
H     2.247000000     5.257000000    -3.484000000
H     2.811000000     6.075000000    -2.342000000
O     1.152000000     3.441000000     3.363000000
H     0.952000000     3.767000000     4.241000000
H     2.078000000     3.199000000     3.403000000
O    -0.682000000    -2.177000000    -4.876000000
H    -0.269000000    -1.932000000    -5.705000000
H    -1.093000000    -1.370000000    -4.566000000
O    -0.646000000    -4.472000000     4.581000000
H    -0.629000000    -5.250000000     5.139000000
H    -1.513000000    -4.488000000     4.175000000
O     2.526000000     0.122000000     4.405000000
H     3.145000000    -0.446000000     4.863000000
H     2.234000000    -0.396000000     3.655000000
O     0.929000000    -2.286000000     3.891000000
H     1.687000000    -2.819000000     4.133000000
H     0.173000000    -2.818000000     4.139000000
O    -3.156000000    -4.305000000     3.506000000
H    -2.985000000    -4.543000000     2.595000000
H    -3.868000000    -4.885000000     3.775000000
O    -2.399000000     0.331000000    -1.966000000
H    -2.011000000    -0.526000000    -2.143000000
H    -1.687000000     0.841000000    -1.580000000
O     1.139000000    -5.864000000    -2.321000000
H     0.983000000    -5.031000000    -1.876000000
H     1.876000000    -6.253000000    -1.850000000
O     4.077000000    -2.855000000     1.950000000
H     3.607000000    -3.235000000     2.692000000
H     3.535000000    -2.114000000     1.678000000
O    -4.580000000    -5.446000000     0.149000000
H    -5.113000000    -5.158000000    -0.591000000
H    -3.681000000    -5.422000000    -0.180000000
O     0.437000000     8.148000000     0.891000000
H     0.660000000     8.093000000    -0.038000000
H     0.787000000     7.341000000     1.269000000
O     1.431000000     5.884000000     2.243000000
H     1.787000000     6.397000000     2.969000000
H     1.244000000     5.026000000     2.624000000
O    -2.256000000     7.420000000    -0.582000000
H    -2.688000000     7.351000000     0.269000000
H    -1.497000000     6.841000000    -0.514000000
O    -5.650000000    -0.047000000     3.340000000
H    -5.996000000    -0.938000000     3.400000000
H    -4.772000000    -0.106000000     3.717000000
O    -3.014000000     2.655000000     2.005000000
H    -3.787000000     3.217000000     2.057000000
H    -2.297000000     3.253000000     1.794000000
O    -0.248000000     1.193000000     4.426000000
H     0.459000000     0.549000000     4.424000000
H     0.060000000     1.889000000     3.845000000
O     4.070000000     1.466000000     0.767000000
H     4.592000000     0.717000000     0.478000000
H     4.566000000     1.836000000     1.497000000
O    -2.227000000    -5.156000000    -1.097000000
H    -2.177000000    -5.268000000    -2.046000000
H    -1.401000000    -4.734000000    -0.862000000
O     0.922000000    -4.872000000     1.913000000
H     0.755000000    -4.153000000     2.522000000
H     0.688000000    -4.518000000     1.055000000
O    -4.964000000     1.787000000    -2.386000000
H    -5.075000000     2.550000000    -1.819000000
H    -4.102000000     1.441000000    -2.155000000
O     3.227000000    -6.547000000    -0.661000000
H     3.767000000    -5.786000000    -0.873000000
H     3.767000000    -7.299000000    -0.904000000
O    -0.275000000     5.121000000    -1.484000000
H    -0.048000000     5.941000000    -1.923000000
H    -0.142000000     4.448000000    -2.151000000
O     0.917000000    -5.695000000    -5.979000000
H     1.661000000    -5.250000000    -6.383000000
H     0.965000000    -5.453000000    -5.054000000
O     2.631000000    -6.723000000     2.327000000
H     2.089000000    -5.935000000     2.368000000
H     2.273000000    -7.223000000     1.594000000
O    -1.275000000     4.588000000     0.958000000
H    -0.592000000     4.784000000     1.599000000
H    -0.849000000     4.710000000     0.109000000
O    -6.605000000     1.917000000     1.804000000
H    -6.139000000     1.219000000     2.264000000
H    -7.342000000     1.476000000     1.382000000
O     0.597000000     3.851000000    -3.913000000
H     1.051000000     3.211000000    -4.461000000
H    -0.110000000     4.182000000    -4.467000000
O    -2.351000000    -4.626000000    -4.337000000
H    -1.815000000    -3.952000000    -4.754000000
H    -3.212000000    -4.533000000    -4.744000000
O     2.630000000    -0.577000000     1.874000000
H     3.030000000     0.181000000     1.448000000
H     1.697000000    -0.501000000     1.672000000
O     5.919000000     3.924000000    -3.033000000
H     5.156000000     4.484000000    -3.180000000
H     5.549000000     3.072000000    -2.804000000
O     1.865000000    -2.993000000    -4.224000000
H     1.713000000    -3.068000000    -3.282000000
H     0.989000000    -2.924000000    -4.604000000
O    -1.531000000    -6.257000000     1.461000000
H    -1.704000000    -6.056000000     0.541000000
H    -0.601000000    -6.062000000     1.578000000
O    -3.458000000     6.213000000     1.476000000
H    -2.750000000     5.594000000     1.298000000
H    -4.227000000     5.662000000     1.622000000
O     4.634000000     4.255000000     0.268000000
H     4.068000000     3.497000000     0.117000000
H     5.517000000     3.888000000     0.319000000
O    -0.804000000     0.666000000    -5.068000000
H    -0.847000000     1.525000000    -4.649000000
H     0.117000000     0.563000000    -5.309000000
O    -3.005000000     0.814000000     4.424000000
H    -3.108000000     1.410000000     3.683000000
H    -2.116000000     0.976000000     4.740000000
O     2.915000000     6.375000000    -0.428000000
H     3.779000000     6.008000000    -0.244000000
H     2.328000000     5.918000000     0.175000000
