158
-3006.38199
C     1.232000000     0.280000000    -0.802000000
H     2.203000000     0.479000000    -1.249000000
C     0.911000000     0.868000000     0.411000000
H     1.638000000     1.452000000     0.969000000
C    -0.286000000     0.643000000     1.012000000
H    -0.404000000     1.019000000     2.034000000
C    -1.096000000    -0.376000000     0.507000000
H    -2.025000000    -0.673000000     0.988000000
C    -0.801000000    -1.025000000    -0.696000000
H    -1.535000000    -1.710000000    -1.112000000
C     0.367000000    -0.656000000    -1.335000000
C     0.752000000    -1.496000000    -2.523000000
O     0.088000000    -2.501000000    -2.719000000
O     1.746000000    -1.179000000    -3.149000000
O     1.583000000    -5.762000000    -2.996000000
H     1.069000000    -5.650000000    -2.196000000
H     2.125000000    -4.975000000    -3.044000000
O     3.375000000     0.580000000    -6.108000000
H     3.604000000     0.710000000    -5.188000000
H     3.171000000     1.458000000    -6.430000000
O     6.280000000    -2.331000000    -3.099000000
H     6.142000000    -1.871000000    -2.271000000
H     5.434000000    -2.734000000    -3.293000000
O     4.539000000    -0.619000000    -1.488000000
H     3.700000000    -0.746000000    -1.931000000
H     4.569000000    -1.313000000    -0.829000000
O    -3.638000000     5.793000000     1.248000000
H    -3.177000000     5.269000000     0.592000000
H    -4.437000000     5.299000000     1.430000000
O    -4.044000000     3.004000000     4.838000000
H    -3.391000000     2.780000000     5.500000000
H    -4.760000000     3.402000000     5.333000000
O    -3.566000000    -1.744000000     4.933000000
H    -4.267000000    -1.514000000     5.544000000
H    -4.013000000    -2.182000000     4.209000000
O    -5.512000000    -1.266000000     0.800000000
H    -5.138000000    -0.624000000     0.197000000
H    -5.853000000    -1.957000000     0.233000000
O     0.903000000    -5.458000000    -7.132000000
H     0.576000000    -4.893000000    -6.431000000
H     0.117000000    -5.853000000    -7.508000000
O     1.491000000     4.976000000    -3.648000000
H     0.711000000     4.932000000    -4.201000000
H     1.558000000     4.105000000    -3.258000000
O     2.287000000     2.015000000     3.443000000
H     1.345000000     1.846000000     3.476000000
H     2.669000000     1.183000000     3.162000000
O    -0.172000000    -3.848000000    -5.230000000
H     0.113000000    -2.952000000    -5.411000000
H     0.192000000    -4.045000000    -4.367000000
O    -2.329000000    -5.357000000     2.746000000
H    -1.560000000    -4.817000000     2.562000000
H    -3.064000000    -4.854000000     2.395000000
O     0.965000000     1.991000000    -3.381000000
H     0.224000000     1.527000000    -3.772000000
H     1.632000000     1.315000000    -3.257000000
O    -2.139000000     2.341000000    -1.694000000
H    -2.406000000     1.455000000    -1.451000000
H    -1.264000000     2.234000000    -2.066000000
O     3.754000000    -2.606000000     0.387000000
H     4.379000000    -2.739000000     1.099000000
H     3.183000000    -1.903000000     0.696000000
O     3.840000000    -3.100000000    -4.102000000
H     3.574000000    -3.246000000    -5.010000000
H     3.201000000    -2.474000000    -3.763000000
O    -4.521000000    -1.410000000    -3.383000000
H    -5.342000000    -1.767000000    -3.723000000
H    -3.895000000    -2.129000000    -3.465000000
O     2.615000000    -0.972000000     2.358000000
H     3.529000000    -1.083000000     2.620000000
H     2.124000000    -1.010000000     3.178000000
O    -3.730000000    -5.536000000    -2.694000000
H    -4.598000000    -5.441000000    -3.085000000
H    -3.276000000    -4.724000000    -2.920000000
O     7.084000000    -0.403000000    -0.438000000
H     6.144000000    -0.229000000    -0.482000000
H     7.482000000     0.460000000    -0.319000000
O     0.432000000     6.279000000     1.351000000
H     1.180000000     6.603000000     1.853000000
H     0.043000000     5.606000000     1.909000000
O     0.369000000     5.007000000     4.090000000
H     0.308000000     5.797000000     4.627000000
H     1.291000000     4.755000000     4.139000000
O    -2.530000000     2.385000000     6.837000000
H    -2.213000000     1.526000000     7.117000000
H    -1.735000000     2.887000000     6.659000000
O     5.221000000    -5.466000000    -4.378000000
H     4.708000000    -4.660000000    -4.314000000
H     4.952000000    -5.855000000    -5.210000000
O    -1.650000000     3.078000000     3.101000000
H    -2.487000000     3.161000000     3.557000000
H    -1.142000000     3.836000000     3.392000000
O     5.001000000     2.288000000    -4.230000000
H     5.322000000     2.835000000    -4.947000000
H     5.661000000     1.602000000    -4.137000000
O    -1.558000000     6.402000000    -1.054000000
H    -2.060000000     5.611000000    -1.252000000
H    -1.212000000     6.253000000    -0.175000000
O    -6.067000000     2.427000000     3.146000000
H    -6.463000000     1.761000000     3.709000000
H    -5.242000000     2.646000000     3.579000000
O     2.944000000     4.019000000     5.094000000
H     2.509000000     3.248000000     4.730000000
H     3.841000000     3.731000000     5.263000000
O    -1.490000000     3.918000000     0.556000000
H    -1.933000000     3.372000000    -0.093000000
H    -1.439000000     3.368000000     1.338000000
O     0.976000000    -0.758000000     5.007000000
H     1.164000000    -1.128000000     5.870000000
H     0.955000000     0.188000000     5.152000000
O     0.082000000    -0.681000000    -8.294000000
H     0.357000000    -1.089000000    -7.473000000
H     0.592000000     0.127000000    -8.343000000
O     2.897000000    -3.516000000    -6.672000000
H     3.744000000    -3.507000000    -7.118000000
H     2.293000000    -3.893000000    -7.311000000
O     3.741000000     4.383000000     1.062000000
H     4.321000000     3.625000000     0.993000000
H     3.037000000     4.203000000     0.440000000
O    -5.397000000     1.794000000    -0.223000000
H    -5.983000000     1.949000000     0.517000000
H    -5.674000000     2.427000000    -0.885000000
O    -2.456000000    -3.342000000    -3.622000000
H    -1.946000000    -3.589000000    -4.393000000
H    -1.844000000    -2.846000000    -3.078000000
O    -0.128000000    -4.723000000    -0.851000000
H    -0.336000000    -4.355000000     0.008000000
H     0.169000000    -3.973000000    -1.367000000
O    -1.204000000     0.523000000    -4.522000000
H    -2.055000000     0.259000000    -4.871000000
H    -0.569000000     0.030000000    -5.041000000
O    -0.406000000    -3.797000000     1.679000000
H    -0.762000000    -2.992000000     2.054000000
H     0.492000000    -3.837000000     2.006000000
O    -4.454000000    -2.903000000     2.508000000
H    -5.317000000    -3.211000000     2.785000000
H    -4.639000000    -2.166000000     1.925000000
O     6.187000000     3.088000000     0.373000000
H     6.753000000     2.616000000    -0.238000000
H     6.784000000     3.647000000     0.869000000
O    -1.176000000    -1.763000000     3.431000000
H    -1.983000000    -1.417000000     3.812000000
H    -0.476000000    -1.314000000     3.904000000
O     0.901000000    -1.145000000    -5.710000000
H     1.096000000    -1.138000000    -4.773000000
H     1.756000000    -1.062000000    -6.132000000
O    -0.939000000    -7.224000000    -0.292000000
H    -0.460000000    -7.820000000    -0.868000000
H    -0.718000000    -6.350000000    -0.613000000
O    -2.874000000    -2.595000000    -6.470000000
H    -2.937000000    -1.912000000    -5.802000000
H    -3.078000000    -2.146000000    -7.291000000
O    -0.039000000     2.076000000     5.020000000
H    -0.187000000     2.580000000     5.820000000
H    -0.580000000     2.509000000     4.360000000
O     1.544000000     4.434000000    -0.529000000
H     0.905000000     3.731000000    -0.415000000
H     1.205000000     5.155000000     0.002000000
