158
-3011.30170
C     1.226000000    -0.432000000    -0.603000000
H     2.123000000    -0.786000000    -1.105000000
C     0.945000000    -0.622000000     0.734000000
H     1.578000000    -1.213000000     1.391000000
C    -0.245000000    -0.065000000     1.258000000
H    -0.647000000    -0.335000000     2.200000000
C    -1.121000000     0.534000000     0.379000000
H    -2.042000000     0.878000000     0.844000000
C    -0.866000000     0.737000000    -1.004000000
H    -1.520000000     1.320000000    -1.647000000
C     0.343000000     0.218000000    -1.528000000
C     0.812000000     0.461000000    -3.034000000
O     0.096000000     1.081000000    -3.773000000
O     1.891000000    -0.021000000    -3.364000000
O     6.906000000     2.258000000    -3.677000000
H     6.068000000     1.796000000    -3.670000000
H     6.849000000     2.845000000    -4.431000000
O    -1.569000000     5.125000000    -4.041000000
H    -0.731000000     5.314000000    -3.619000000
H    -1.869000000     5.973000000    -4.367000000
O     2.852000000     4.823000000    -5.895000000
H     2.971000000     5.031000000    -4.968000000
H     2.787000000     3.869000000    -5.920000000
O    -2.463000000    -2.625000000    -2.848000000
H    -1.590000000    -3.017000000    -2.850000000
H    -2.337000000    -1.755000000    -3.226000000
O     4.599000000     0.942000000    -3.594000000
H     3.968000000     0.227000000    -3.508000000
H     4.079000000     1.684000000    -3.903000000
O    -0.252000000     0.555000000     4.721000000
H    -0.020000000     1.244000000     5.344000000
H    -1.201000000     0.628000000     4.625000000
O    -1.644000000    -0.561000000     7.359000000
H    -0.707000000    -0.493000000     7.177000000
H    -2.050000000    -0.650000000     6.497000000
O     2.441000000    -0.458000000     4.146000000
H     2.034000000    -0.481000000     5.012000000
H     1.924000000     0.181000000     3.656000000
O    -4.807000000     0.618000000     0.448000000
H    -4.509000000     1.272000000    -0.183000000
H    -5.628000000     0.289000000     0.081000000
O     1.787000000    -2.804000000    -8.053000000
H     1.804000000    -2.034000000    -7.485000000
H     1.515000000    -2.467000000    -8.906000000
O     3.589000000    -5.784000000     1.310000000
H     3.480000000    -5.195000000     0.564000000
H     4.433000000    -5.537000000     1.689000000
O     1.273000000    -1.288000000    -5.649000000
H     0.372000000    -0.969000000    -5.703000000
H     1.600000000    -0.943000000    -4.818000000
O    -2.991000000    -3.581000000    -0.529000000
H    -2.916000000    -3.116000000    -1.362000000
H    -2.318000000    -3.187000000     0.026000000
O    -2.155000000     3.284000000     4.829000000
H    -2.970000000     2.783000000     4.793000000
H    -2.287000000     3.905000000     5.545000000
O     0.923000000     5.065000000    -3.005000000
H     0.743000000     5.489000000    -2.166000000
H     1.626000000     4.445000000    -2.814000000
O    -1.208000000     4.882000000    -0.157000000
H    -1.347000000     4.408000000     0.662000000
H    -1.942000000     4.620000000    -0.713000000
O     0.327000000     2.631000000     6.694000000
H     0.875000000     3.002000000     7.385000000
H    -0.570000000     2.781000000     6.993000000
O     5.013000000     2.129000000    -0.560000000
H     4.838000000     1.674000000     0.264000000
H     5.772000000     1.677000000    -0.928000000
O     3.176000000    -2.318000000    -3.267000000
H     3.551000000    -2.126000000    -2.407000000
H     2.555000000    -1.606000000    -3.421000000
O    -3.634000000     3.515000000    -0.481000000
H    -3.860000000     3.910000000     0.361000000
H    -3.958000000     4.137000000    -1.132000000
O    -1.848000000    -6.278000000     2.359000000
H    -1.427000000    -5.581000000     2.863000000
H    -2.554000000    -6.590000000     2.925000000
O     4.602000000     0.746000000     1.936000000
H     5.222000000     1.058000000     2.595000000
H     3.791000000     0.596000000     2.422000000
O    -2.145000000     2.571000000    -4.659000000
H    -2.077000000     3.508000000    -4.475000000
H    -1.340000000     2.198000000    -4.299000000
O     4.803000000    -4.433000000    -4.327000000
H     4.231000000    -3.680000000    -4.179000000
H     5.342000000    -4.181000000    -5.077000000
O    -4.734000000     2.093000000     4.224000000
H    -5.046000000     2.383000000     5.081000000
H    -5.150000000     2.690000000     3.603000000
O    -1.598000000    -4.548000000     6.278000000
H    -1.827000000    -3.892000000     5.620000000
H    -0.948000000    -5.103000000     5.847000000
O    -1.720000000     3.732000000     2.207000000
H    -2.632000000     4.023000000     2.245000000
H    -1.510000000     3.485000000     3.108000000
O    -3.111000000    -0.120000000     4.330000000
H    -3.767000000     0.524000000     4.594000000
H    -3.573000000    -0.697000000     3.721000000
O     5.223000000    -1.936000000    -5.638000000
H     5.298000000    -1.784000000    -6.580000000
H     4.317000000    -1.705000000    -5.430000000
O     1.740000000     4.664000000     2.764000000
H     1.791000000     3.985000000     3.437000000
H     1.990000000     4.218000000     1.954000000
O     0.017000000    -3.622000000    -5.824000000
H     0.258000000    -4.417000000    -6.300000000
H     0.807000000    -3.082000000    -5.843000000
O     3.170000000    -3.114000000     3.708000000
H     4.126000000    -3.077000000     3.674000000
H     2.902000000    -2.210000000     3.877000000
O    -4.824000000     3.333000000    -4.427000000
H    -3.889000000     3.134000000    -4.476000000
H    -5.204000000     2.883000000    -5.183000000
O     2.710000000     3.267000000    -1.616000000
H     3.369000000     2.662000000    -1.276000000
H     1.963000000     3.163000000    -1.026000000
O     1.104000000     2.674000000     0.856000000
H     0.368000000     3.278000000     0.953000000
H     0.716000000     1.805000000     0.962000000
O    -2.281000000    -0.331000000    -3.861000000
H    -3.047000000     0.222000000    -3.711000000
H    -1.560000000     0.286000000    -3.988000000
O     2.999000000    -3.684000000    -0.282000000
H     2.253000000    -3.505000000     0.291000000
H     3.574000000    -2.927000000    -0.171000000
O    -4.194000000     4.666000000     1.949000000
H    -5.126000000     4.488000000     2.076000000
H    -4.056000000     5.521000000     2.357000000
O     0.246000000    -3.691000000    -3.138000000
H     0.010000000    -3.495000000    -4.044000000
H     1.176000000    -3.471000000    -3.079000000
O    -0.422000000     1.057000000    -7.227000000
H    -0.437000000     1.668000000    -6.490000000
H    -0.675000000     1.588000000    -7.983000000
O     4.605000000    -1.827000000     0.424000000
H     5.356000000    -1.337000000     0.089000000
H     4.300000000    -1.314000000     1.173000000
O    -0.662000000    -3.038000000     0.785000000
H    -0.089000000    -3.744000000     1.084000000
H    -0.064000000    -2.338000000     0.524000000
O    -3.129000000    -1.055000000    -6.548000000
H    -2.356000000    -1.292000000    -7.061000000
H    -2.806000000    -0.420000000    -5.908000000
O    -4.145000000    -1.509000000     2.189000000
H    -4.542000000    -2.186000000     1.640000000
H    -4.234000000    -0.705000000     1.678000000
O    -1.927000000    -2.947000000     4.118000000
H    -2.187000000    -2.034000000     4.236000000
H    -1.846000000    -3.052000000     3.170000000
O     2.400000000     1.902000000    -5.728000000
H     1.667000000     1.994000000    -5.120000000
H     2.126000000     1.212000000    -6.332000000
O     1.331000000    -4.450000000     1.903000000
H     1.973000000    -5.155000000     1.825000000
H     1.663000000    -3.902000000     2.615000000
O     2.297000000     2.758000000     4.692000000
H     1.547000000     2.919000000     5.265000000
H     2.994000000     2.476000000     5.283000000
