158
-3057.27763
C     0.180000000    -1.396000000    -0.451000000
H     0.329000000    -2.433000000    -0.738000000
C     0.584000000    -0.941000000     0.766000000
H     0.835000000    -1.682000000     1.521000000
C     0.455000000     0.445000000     1.036000000
H     0.896000000     0.842000000     1.854000000
C    -0.148000000     1.344000000     0.111000000
H    -0.268000000     2.402000000     0.329000000
C    -0.627000000     0.831000000    -1.112000000
H    -1.158000000     1.522000000    -1.762000000
C    -0.510000000    -0.535000000    -1.365000000
C    -0.946000000    -1.123000000    -2.687000000
O    -1.508000000    -0.373000000    -3.457000000
O    -0.856000000    -2.325000000    -2.927000000
O    -0.551000000     6.034000000    -1.392000000
H    -1.107000000     5.339000000    -1.744000000
H     0.198000000     5.574000000    -1.013000000
O    -4.035000000     3.758000000     2.529000000
H    -3.223000000     3.507000000     2.969000000
H    -3.811000000     4.554000000     2.047000000
O    -2.460000000    -1.334000000     1.070000000
H    -3.150000000    -1.165000000     0.428000000
H    -1.851000000    -0.604000000     0.966000000
O    -0.400000000     2.555000000    -6.663000000
H    -0.009000000     2.024000000    -5.969000000
H    -1.096000000     2.004000000    -7.023000000
O    -4.102000000     2.442000000    -0.138000000
H    -4.505000000     1.579000000    -0.236000000
H    -3.309000000     2.280000000     0.373000000
O     0.521000000    -2.140000000     4.428000000
H    -0.221000000    -2.374000000     3.871000000
H     0.878000000    -2.980000000     4.717000000
O     4.328000000    -1.732000000    -3.671000000
H     3.450000000    -1.976000000    -3.962000000
H     4.888000000    -2.446000000    -3.977000000
O    -0.453000000    -1.905000000     7.864000000
H    -0.727000000    -2.791000000     8.100000000
H    -0.946000000    -1.706000000     7.068000000
O    -1.600000000    -0.042000000     4.428000000
H    -1.070000000    -0.828000000     4.297000000
H    -2.504000000    -0.353000000     4.385000000
O    -4.203000000    -0.681000000    -0.883000000
H    -5.086000000    -0.311000000    -0.865000000
H    -3.998000000    -0.765000000    -1.815000000
O    -1.221000000     4.472000000    -3.667000000
H    -1.992000000     4.093000000    -3.245000000
H    -1.307000000     4.227000000    -4.588000000
O     1.967000000    -0.829000000    -5.644000000
H     1.474000000    -0.112000000    -5.245000000
H     1.849000000    -1.564000000    -5.043000000
O     4.789000000     1.430000000     6.540000000
H     4.280000000     0.970000000     5.872000000
H     5.643000000     1.000000000     6.528000000
O     3.043000000     1.167000000    -0.314000000
H     2.488000000     1.896000000    -0.035000000
H     2.429000000     0.459000000    -0.507000000
O     1.773000000     4.905000000    -0.606000000
H     2.534000000     5.475000000    -0.727000000
H     1.958000000     4.428000000     0.203000000
O    -5.556000000     3.094000000    -3.597000000
H    -6.173000000     2.386000000    -3.783000000
H    -4.694000000     2.701000000    -3.731000000
O    -0.833000000    -5.505000000     1.538000000
H    -1.228000000    -5.074000000     0.780000000
H    -0.541000000    -6.353000000     1.205000000
O    -1.524000000     2.644000000     4.150000000
H    -0.613000000     2.849000000     4.364000000
H    -1.557000000     1.688000000     4.136000000
O    -1.922000000    -4.884000000    -6.497000000
H    -1.827000000    -3.992000000    -6.164000000
H    -2.009000000    -4.779000000    -7.444000000
O     4.254000000    -2.014000000    -0.782000000
H     5.145000000    -1.692000000    -0.652000000
H     3.975000000    -1.622000000    -1.609000000
O     1.901000000    -3.198000000    -3.909000000
H     2.146000000    -3.802000000    -3.208000000
H     0.952000000    -3.109000000    -3.828000000
O    -6.822000000    -1.733000000    -3.783000000
H    -5.995000000    -1.540000000    -3.341000000
H    -6.919000000    -2.682000000    -3.705000000
O    -1.963000000    -3.663000000    -0.558000000
H    -2.260000000    -2.868000000    -0.116000000
H    -1.533000000    -3.348000000    -1.353000000
O     1.003000000     3.159000000    -2.974000000
H     0.257000000     3.647000000    -3.323000000
H     1.248000000     3.634000000    -2.180000000
O     2.722000000     5.707000000     3.211000000
H     3.621000000     5.830000000     3.515000000
H     2.319000000     6.571000000     3.300000000
O    -2.509000000     4.789000000     5.654000000
H    -2.076000000     4.135000000     5.106000000
H    -3.297000000     4.350000000     5.973000000
O    -2.887000000     1.782000000    -4.213000000
H    -3.258000000     1.574000000    -5.070000000
H    -2.335000000     1.029000000    -4.002000000
O    -1.643000000    -3.380000000     3.132000000
H    -2.082000000    -3.019000000     2.361000000
H    -1.405000000    -4.271000000     2.876000000
O     3.215000000    -4.965000000    -5.367000000
H     2.440000000    -4.500000000    -5.053000000
H     3.140000000    -4.940000000    -6.321000000
O    -3.973000000    -5.333000000    -1.067000000
H    -3.776000000    -6.124000000    -1.568000000
H    -3.176000000    -4.806000000    -1.128000000
O    -1.237000000    -4.753000000    -3.603000000
H    -1.213000000    -3.806000000    -3.463000000
H    -1.216000000    -4.855000000    -4.554000000
O     5.710000000     0.569000000    -0.348000000
H     4.779000000     0.774000000    -0.267000000
H     6.022000000     1.145000000    -1.046000000
O    -4.098000000    -1.151000000    -3.713000000
H    -3.273000000    -0.730000000    -3.954000000
H    -4.192000000    -1.870000000    -4.338000000
O    -2.901000000     4.551000000    -1.585000000
H    -3.262000000     3.836000000    -1.060000000
H    -3.528000000     5.266000000    -1.478000000
O     4.927000000    -0.276000000     3.047000000
H     4.213000000     0.030000000     3.607000000
H     4.501000000    -0.849000000     2.410000000
O     2.812000000    -5.141000000    -2.000000000
H     3.644000000    -5.567000000    -2.203000000
H     2.870000000    -4.935000000    -1.067000000
O    -1.626000000    -2.318000000    -5.757000000
H    -1.148000000    -2.140000000    -4.947000000
H    -2.542000000    -2.151000000    -5.536000000
O    -3.513000000     1.826000000    -6.875000000
H    -4.378000000     1.470000000    -7.079000000
H    -2.900000000     1.196000000    -7.255000000
O     4.137000000    -4.053000000     0.853000000
H     4.104000000    -3.288000000     0.278000000
H     5.071000000    -4.202000000     0.999000000
O     1.087000000     3.764000000     4.440000000
H     1.118000000     3.991000000     5.369000000
H     1.785000000     4.284000000     4.043000000
O     2.304000000    -5.456000000     2.551000000
H     2.983000000    -5.955000000     3.005000000
H     2.785000000    -4.809000000     2.036000000
O    -0.291000000    -6.444000000    -1.923000000
H     0.565000000    -6.071000000    -1.711000000
H    -0.645000000    -5.862000000    -2.596000000
O     1.133000000    -4.660000000    -7.172000000
H     1.154000000    -3.740000000    -7.434000000
H     0.254000000    -4.787000000    -6.814000000
O    -1.622000000    -0.237000000    -7.901000000
H    -1.432000000    -1.065000000    -7.459000000
H    -1.328000000    -0.373000000    -8.801000000
O    -4.597000000    -2.380000000    -6.206000000
H    -4.676000000    -3.269000000    -6.553000000
H    -4.893000000    -1.817000000    -6.920000000
O     0.549000000     0.977000000    -4.567000000
H    -0.256000000     0.687000000    -4.139000000
H     0.995000000     1.506000000    -3.906000000
O     2.559000000    -0.247000000     4.684000000
H     2.082000000    -1.060000000     4.522000000
H     1.914000000     0.334000000     5.086000000
O     2.096000000     3.315000000     1.464000000
H     1.560000000     2.596000000     1.799000000
H     2.385000000     3.783000000     2.248000000
