158
-3015.05956
C     0.779000000    -0.949000000    -0.843000000
H     1.389000000    -1.730000000    -1.290000000
C     1.221000000    -0.290000000     0.301000000
H     2.231000000    -0.609000000     0.546000000
C     0.477000000     0.613000000     0.989000000
H     0.896000000     1.010000000     1.908000000
C    -0.847000000     0.835000000     0.558000000
H    -1.512000000     1.554000000     1.031000000
C    -1.333000000     0.179000000    -0.540000000
H    -2.375000000     0.288000000    -0.832000000
C    -0.521000000    -0.747000000    -1.308000000
C    -1.023000000    -1.540000000    -2.425000000
O    -2.197000000    -1.492000000    -2.763000000
O    -0.329000000    -2.221000000    -3.146000000
O    -5.254000000     1.698000000     1.835000000
H    -5.686000000     0.975000000     1.382000000
H    -5.754000000     1.808000000     2.644000000
O    -0.858000000    -1.569000000     2.483000000
H    -0.706000000    -1.498000000     1.541000000
H    -0.499000000    -0.760000000     2.846000000
O    -2.890000000    -0.467000000     4.883000000
H    -1.971000000    -0.627000000     4.666000000
H    -3.205000000     0.104000000     4.182000000
O     1.751000000    -2.879000000     5.143000000
H     1.744000000    -2.362000000     4.338000000
H     0.983000000    -2.579000000     5.628000000
O    -0.274000000     3.100000000     5.097000000
H    -0.079000000     4.003000000     5.346000000
H    -1.199000000     2.985000000     5.313000000
O     2.723000000     6.036000000    -1.872000000
H     2.878000000     6.866000000    -1.422000000
H     2.717000000     5.382000000    -1.173000000
O     1.005000000     2.037000000     7.631000000
H     1.125000000     2.445000000     6.774000000
H     0.648000000     2.734000000     8.181000000
O     3.727000000    -1.310000000    -5.700000000
H     2.817000000    -1.606000000    -5.671000000
H     3.831000000    -0.779000000    -4.911000000
O    -0.154000000    -1.362000000     6.788000000
H     0.178000000    -0.988000000     5.971000000
H    -0.844000000    -1.965000000     6.512000000
O    -6.278000000    -3.476000000    -2.120000000
H    -5.348000000    -3.549000000    -1.907000000
H    -6.320000000    -3.628000000    -3.064000000
O    -4.762000000    -2.381000000    -6.182000000
H    -4.448000000    -1.655000000    -6.720000000
H    -4.896000000    -1.997000000    -5.315000000
O     1.581000000     3.297000000    -4.343000000
H     1.415000000     4.239000000    -4.354000000
H     0.962000000     2.953000000    -3.698000000
O    -1.575000000    -5.941000000    -2.036000000
H    -2.044000000    -5.536000000    -2.766000000
H    -0.804000000    -5.389000000    -1.910000000
O     3.143000000     0.159000000    -3.551000000
H     2.490000000     0.298000000    -4.236000000
H     3.484000000     1.034000000    -3.364000000
O     2.956000000    -0.421000000     3.862000000
H     3.701000000    -0.356000000     3.264000000
H     3.334000000    -0.280000000     4.730000000
O    -0.408000000     2.754000000    -2.532000000
H    -0.734000000     1.855000000    -2.497000000
H    -0.222000000     2.977000000    -1.620000000
O    -1.267000000     4.316000000    -0.052000000
H    -0.640000000     4.287000000     0.670000000
H    -1.722000000     5.151000000     0.059000000
O    -4.440000000    -0.779000000    -3.835000000
H    -3.606000000    -1.042000000    -3.445000000
H    -4.888000000    -0.298000000    -3.139000000
O    -6.189000000    -0.847000000     0.876000000
H    -6.715000000    -1.063000000     0.106000000
H    -5.942000000    -1.695000000     1.243000000
O    -3.075000000     2.131000000     6.179000000
H    -3.153000000     1.177000000     6.167000000
H    -2.702000000     2.330000000     7.038000000
O     4.189000000    -0.852000000    -1.192000000
H     3.792000000    -0.464000000    -1.971000000
H     5.066000000    -1.111000000    -1.474000000
O     0.531000000    -4.381000000    -1.657000000
H     1.445000000    -4.164000000    -1.837000000
H     0.030000000    -3.822000000    -2.252000000
O     5.644000000     0.457000000     3.641000000
H     5.858000000     1.379000000     3.784000000
H     5.664000000     0.352000000     2.689000000
O    -3.310000000    -5.396000000    -4.309000000
H    -3.823000000    -5.761000000    -5.029000000
H    -3.922000000    -4.823000000    -3.846000000
O    -5.286000000     0.980000000    -1.868000000
H    -5.423000000     0.337000000    -1.172000000
H    -4.568000000     1.527000000    -1.552000000
O     6.330000000    -3.691000000     2.493000000
H     5.654000000    -3.266000000     1.965000000
H     6.640000000    -4.415000000     1.948000000
O     1.540000000     1.030000000    -5.660000000
H     1.087000000     0.965000000    -6.501000000
H     1.297000000     1.892000000    -5.322000000
O    -0.090000000     4.135000000     2.323000000
H     0.002000000     3.455000000     2.991000000
H    -0.665000000     4.787000000     2.722000000
O     4.247000000     3.911000000     2.079000000
H     4.821000000     4.616000000     2.377000000
H     4.474000000     3.166000000     2.635000000
O     5.706000000     0.361000000     0.833000000
H     6.167000000     1.057000000     0.365000000
H     5.012000000     0.088000000     0.233000000
O    -2.800000000    -3.310000000     3.711000000
H    -2.318000000    -2.598000000     3.293000000
H    -3.716000000    -3.035000000     3.672000000
O    -1.432000000    -2.542000000    -5.681000000
H    -2.379000000    -2.399000000    -5.669000000
H    -1.123000000    -2.167000000    -4.856000000
O    -0.468000000    -5.052000000    -4.956000000
H    -1.288000000    -5.407000000    -4.614000000
H    -0.665000000    -4.135000000    -5.149000000
O     4.788000000     2.815000000    -1.215000000
H     4.831000000     3.522000000    -0.571000000
H     4.042000000     2.283000000    -0.937000000
O    -3.623000000    -3.429000000    -1.804000000
H    -3.146000000    -2.718000000    -2.231000000
H    -3.058000000    -3.694000000    -1.079000000
O    -3.214000000     1.672000000    -4.860000000
H    -2.823000000     1.127000000    -5.543000000
H    -3.921000000     1.135000000    -4.501000000
O     2.120000000    -4.354000000     2.004000000
H     1.854000000    -5.235000000     1.739000000
H     1.394000000    -3.793000000     1.733000000
O     3.150000000    -3.530000000    -2.540000000
H     3.487000000    -2.650000000    -2.377000000
H     2.923000000    -3.532000000    -3.470000000
O     1.749000000    -2.858000000    -4.736000000
H     1.022000000    -2.627000000    -4.158000000
H     1.666000000    -3.804000000    -4.859000000
O     4.516000000    -3.112000000     0.554000000
H     4.525000000    -2.433000000    -0.121000000
H     3.596000000    -3.182000000     0.811000000
O    -3.509000000     2.842000000    -0.261000000
H    -3.833000000     2.447000000     0.548000000
H    -2.658000000     3.209000000    -0.024000000
O    -0.012000000     0.320000000     4.280000000
H    -0.170000000     1.239000000     4.495000000
H     0.937000000     0.218000000     4.345000000
O     4.183000000    -6.316000000    -2.008000000
H     4.207000000    -6.578000000    -1.088000000
H     3.857000000    -5.417000000    -1.993000000
O     0.876000000    -2.493000000    -7.774000000
H     0.565000000    -2.656000000    -6.884000000
H     0.579000000    -1.605000000    -7.973000000
O     1.859000000    -6.590000000    -4.516000000
H     2.099000000    -6.533000000    -3.591000000
H     1.151000000    -5.955000000    -4.620000000
O    -5.099000000     4.574000000    -1.443000000
H    -4.627000000     5.065000000    -2.117000000
H    -4.447000000     3.970000000    -1.087000000
O    -1.718000000    -3.854000000     0.272000000
H    -1.712000000    -3.986000000     1.220000000
H    -1.352000000    -4.663000000    -0.085000000
O     2.260000000     3.858000000     0.112000000
H     2.934000000     3.960000000     0.784000000
H     1.452000000     3.710000000     0.604000000
