158
-3024.31029
C     0.721000000     0.201000000    -1.344000000
H     1.327000000     0.415000000    -2.221000000
C     1.078000000     0.765000000    -0.117000000
H     1.933000000     1.435000000    -0.132000000
C     0.251000000     0.589000000     1.044000000
H     0.501000000     1.123000000     1.923000000
C    -0.931000000    -0.130000000     0.959000000
H    -1.480000000    -0.159000000     1.897000000
C    -1.225000000    -0.787000000    -0.203000000
H    -2.097000000    -1.437000000    -0.197000000
C    -0.369000000    -0.704000000    -1.348000000
C    -0.754000000    -1.458000000    -2.619000000
O    -1.900000000    -1.783000000    -2.805000000
O     0.060000000    -1.836000000    -3.479000000
O     4.875000000     3.314000000     1.252000000
H     5.078000000     4.249000000     1.282000000
H     3.942000000     3.264000000     1.462000000
O    -2.706000000    -4.277000000     4.236000000
H    -1.991000000    -3.798000000     3.817000000
H    -2.515000000    -5.198000000     4.056000000
O     3.946000000     2.654000000    -5.072000000
H     3.661000000     2.717000000    -4.161000000
H     3.531000000     3.400000000    -5.505000000
O    -5.037000000     2.821000000    -0.207000000
H    -5.944000000     2.928000000     0.080000000
H    -4.665000000     2.186000000     0.406000000
O    -1.015000000    -0.065000000     4.855000000
H    -1.951000000    -0.111000000     5.048000000
H    -0.859000000     0.856000000     4.645000000
O     4.418000000    -3.702000000    -5.452000000
H     3.950000000    -3.157000000    -4.820000000
H     5.344000000    -3.537000000    -5.272000000
O    -3.936000000    -3.227000000     0.854000000
H    -3.344000000    -3.834000000     1.299000000
H    -4.340000000    -2.725000000     1.561000000
O    -4.221000000     1.637000000     5.354000000
H    -4.885000000     1.846000000     6.011000000
H    -4.068000000     0.698000000     5.458000000
O     3.353000000    -3.143000000     3.705000000
H     3.943000000    -2.685000000     3.106000000
H     2.522000000    -2.674000000     3.629000000
O    -0.013000000     2.118000000     7.521000000
H    -0.103000000     2.485000000     6.641000000
H    -0.363000000     2.795000000     8.100000000
O    -0.591000000    -2.200000000     6.372000000
H    -0.537000000    -1.310000000     6.023000000
H    -1.519000000    -2.427000000     6.306000000
O     0.987000000     1.054000000    -7.285000000
H     0.431000000     0.538000000    -6.702000000
H     0.765000000     1.963000000    -7.085000000
O    -4.704000000    -1.207000000    -6.735000000
H    -4.251000000    -0.927000000    -7.530000000
H    -4.263000000    -0.735000000    -6.029000000
O    -1.320000000     4.400000000    -3.150000000
H    -1.491000000     3.665000000    -2.561000000
H    -0.867000000     5.043000000    -2.604000000
O     4.459000000     1.555000000    -1.247000000
H     3.634000000     1.893000000    -1.594000000
H     4.628000000     2.086000000    -0.469000000
O     3.324000000     0.446000000     2.930000000
H     3.379000000    -0.099000000     2.146000000
H     4.159000000     0.308000000     3.377000000
O     2.560000000     2.992000000    -2.648000000
H     1.642000000     3.219000000    -2.498000000
H     3.031000000     3.819000000    -2.549000000
O    -1.806000000     2.263000000    -1.698000000
H    -1.242000000     1.495000000    -1.604000000
H    -2.119000000     2.440000000    -0.810000000
O    -3.377000000    -0.015000000    -4.356000000
H    -2.939000000    -0.611000000    -3.749000000
H    -3.675000000     0.711000000    -3.808000000
O    -5.976000000     0.211000000     1.225000000
H    -6.516000000    -0.367000000     0.687000000
H    -6.503000000     1.004000000     1.328000000
O     4.336000000    -1.463000000    -1.469000000
H     4.476000000    -0.523000000    -1.578000000
H     3.742000000    -1.701000000    -2.181000000
O     0.437000000    -4.549000000    -2.313000000
H     0.412000000    -3.602000000    -2.178000000
H    -0.086000000    -4.693000000    -3.101000000
O     4.950000000    -1.790000000     1.345000000
H     5.880000000    -1.828000000     1.565000000
H     4.917000000    -1.989000000     0.409000000
O    -4.766000000    -5.424000000    -2.025000000
H    -5.268000000    -5.466000000    -2.839000000
H    -4.485000000    -4.511000000    -1.964000000
O     4.385000000    -0.128000000    -5.301000000
H     5.295000000    -0.249000000    -5.030000000
H     4.184000000     0.778000000    -5.067000000
O     0.459000000     6.008000000    -1.729000000
H     0.349000000     5.455000000    -0.956000000
H     1.292000000     6.458000000    -1.585000000
O    -2.194000000    -5.771000000     1.629000000
H    -2.034000000    -6.714000000     1.649000000
H    -1.354000000    -5.390000000     1.375000000
O     0.167000000     4.448000000     0.348000000
H     0.950000000     4.067000000     0.746000000
H    -0.561000000     3.972000000     0.748000000
O     1.409000000     4.617000000     4.495000000
H     2.084000000     5.279000000     4.640000000
H     0.778000000     4.760000000     5.200000000
O     2.454000000     2.999000000     2.258000000
H     2.511000000     2.071000000     2.487000000
H     2.291000000     3.442000000     3.091000000
O     0.433000000    -4.722000000     0.891000000
H     1.143000000    -4.987000000     1.475000000
H     0.869000000    -4.241000000     0.188000000
O     1.368000000    -1.205000000     3.574000000
H     0.908000000    -0.827000000     4.323000000
H     1.989000000    -0.528000000     3.307000000
O    -2.366000000     2.891000000     0.888000000
H    -2.687000000     2.225000000     1.496000000
H    -2.790000000     3.700000000     1.172000000
O     6.492000000     1.215000000     1.468000000
H     5.925000000     1.986000000     1.470000000
H     6.688000000     1.060000000     2.392000000
O    -4.479000000    -1.071000000     4.849000000
H    -4.216000000    -1.680000000     5.539000000
H    -5.005000000    -1.600000000     4.250000000
O    -1.151000000    -3.666000000    -5.033000000
H    -2.037000000    -3.310000000    -5.101000000
H    -0.669000000    -3.013000000    -4.524000000
O    -1.449000000    -6.261000000    -5.060000000
H    -0.653000000    -6.686000000    -4.740000000
H    -1.225000000    -5.332000000    -5.100000000
O    -6.647000000    -3.054000000    -3.464000000
H    -6.241000000    -3.614000000    -4.127000000
H    -5.910000000    -2.704000000    -2.963000000
O    -0.710000000    -0.185000000    -5.631000000
H    -0.316000000    -0.583000000    -4.855000000
H    -1.646000000    -0.153000000    -5.434000000
O     2.353000000    -2.732000000    -0.081000000
H     2.814000000    -1.932000000    -0.333000000
H     3.049000000    -3.364000000     0.099000000
O     2.887000000    -2.090000000    -3.860000000
H     1.936000000    -1.999000000    -3.913000000
H     3.224000000    -1.459000000    -4.496000000
O    -4.315000000     2.280000000    -2.684000000
H    -4.872000000     2.254000000    -1.907000000
H    -3.432000000     2.416000000    -2.341000000
O    -0.704000000     2.730000000     4.690000000
H     0.093000000     3.113000000     4.324000000
H    -1.372000000     3.405000000     4.569000000
O    -0.175000000    -3.746000000    -7.765000000
H    -0.393000000    -3.714000000    -6.833000000
H     0.325000000    -2.945000000    -7.922000000
O    -4.185000000    -2.847000000    -1.849000000
H    -3.966000000    -2.991000000    -0.928000000
H    -3.452000000    -2.336000000    -2.192000000
O     5.508000000     0.033000000     4.437000000
H     6.257000000     0.612000000     4.576000000
H     5.691000000    -0.732000000     4.982000000
O    -0.342000000    -3.355000000     3.004000000
H    -0.423000000    -3.596000000     2.081000000
H     0.225000000    -2.584000000     3.002000000
O    -3.687000000     1.427000000     2.739000000
H    -3.824000000     1.703000000     3.645000000
H    -4.423000000     0.845000000     2.552000000
