158
-3037.71253
C     0.824000000    -0.689000000    -1.082000000
H     1.476000000    -1.072000000    -1.863000000
C     1.332000000    -0.042000000     0.078000000
H     2.385000000    -0.099000000     0.343000000
C     0.468000000     0.503000000     1.013000000
H     0.938000000     1.064000000     1.866000000
C    -0.869000000     0.647000000     0.787000000
H    -1.490000000     1.308000000     1.386000000
C    -1.409000000    -0.064000000    -0.297000000
H    -2.480000000    -0.045000000    -0.482000000
C    -0.548000000    -0.668000000    -1.295000000
C    -1.152000000    -1.446000000    -2.468000000
O    -2.377000000    -1.447000000    -2.676000000
O    -0.404000000    -1.941000000    -3.300000000
O     2.171000000     3.935000000     0.892000000
H     1.276000000     4.221000000     0.710000000
H     2.611000000     3.971000000     0.043000000
O     3.463000000    -4.974000000     0.500000000
H     3.122000000    -5.006000000    -0.394000000
H     2.845000000    -4.416000000     0.972000000
O    -3.009000000    -1.801000000     3.075000000
H    -2.249000000    -1.853000000     2.495000000
H    -3.102000000    -2.687000000     3.426000000
O     3.260000000    -0.534000000    -3.685000000
H     2.550000000     0.077000000    -3.884000000
H     3.456000000    -0.954000000    -4.522000000
O    -4.483000000     1.260000000    -1.870000000
H    -4.006000000     1.792000000    -2.507000000
H    -4.500000000     1.796000000    -1.077000000
O     2.377000000    -2.150000000     6.058000000
H     2.796000000    -1.299000000     6.185000000
H     2.773000000    -2.496000000     5.259000000
O     6.202000000    -1.791000000    -1.564000000
H     5.726000000    -0.977000000    -1.399000000
H     5.582000000    -2.338000000    -2.045000000
O    -0.761000000    -2.131000000     1.834000000
H    -0.504000000    -1.295000000     1.446000000
H    -0.028000000    -2.718000000     1.644000000
O    -2.752000000     4.139000000     5.332000000
H    -3.557000000     4.516000000     4.976000000
H    -2.606000000     3.350000000     4.810000000
O     5.410000000    -0.905000000     3.548000000
H     5.624000000     0.025000000     3.478000000
H     6.106000000    -1.270000000     4.095000000
O    -0.132000000     1.522000000     5.892000000
H     0.000000000     2.293000000     5.340000000
H    -0.319000000     0.814000000     5.276000000
O    -3.322000000    -6.118000000    -1.924000000
H    -3.263000000    -6.401000000    -2.836000000
H    -3.525000000    -5.184000000    -1.975000000
O    -5.518000000    -3.371000000     0.516000000
H    -5.710000000    -2.459000000     0.299000000
H    -5.603000000    -3.414000000     1.468000000
O    -4.831000000    -1.746000000    -7.106000000
H    -4.184000000    -2.280000000    -7.566000000
H    -4.882000000    -2.131000000    -6.231000000
O    -2.005000000    -0.228000000    -7.175000000
H    -1.348000000     0.465000000    -7.239000000
H    -2.400000000    -0.104000000    -6.312000000
O     0.996000000    -4.205000000     1.426000000
H     0.350000000    -4.475000000     0.774000000
H     0.864000000    -4.807000000     2.158000000
O     5.027000000     0.282000000     0.818000000
H     4.998000000    -0.256000000     1.608000000
H     5.958000000     0.354000000     0.610000000
O    -5.726000000    -4.015000000    -3.980000000
H    -6.194000000    -3.780000000    -4.782000000
H    -6.414000000    -4.114000000    -3.322000000
O    -0.895000000    -4.550000000    -0.416000000
H    -1.790000000    -4.226000000    -0.513000000
H    -0.452000000    -4.274000000    -1.218000000
O     3.053000000     4.040000000    -1.696000000
H     3.088000000     4.407000000    -2.580000000
H     3.249000000     3.111000000    -1.814000000
O     4.016000000     1.730000000     5.379000000
H     4.791000000     2.291000000     5.400000000
H     3.594000000     1.934000000     4.545000000
O    -0.217000000     3.012000000    -2.065000000
H     0.180000000     2.146000000    -1.970000000
H    -0.558000000     3.216000000    -1.194000000
O    -2.591000000     0.091000000    -4.755000000
H    -2.522000000    -0.569000000    -4.065000000
H    -2.607000000     0.926000000    -4.287000000
O    -5.579000000    -0.346000000     2.482000000
H    -4.745000000    -0.744000000     2.731000000
H    -6.174000000    -0.571000000     3.197000000
O     3.348000000    -2.761000000     3.920000000
H     2.624000000    -2.719000000     3.295000000
H     3.994000000    -2.142000000     3.578000000
O     3.554000000     2.116000000     2.405000000
H     4.080000000     1.758000000     1.689000000
H     2.962000000     2.736000000     1.979000000
O    -2.550000000    -5.136000000    -6.261000000
H    -2.589000000    -4.260000000    -5.878000000
H    -1.808000000    -5.101000000    -6.864000000
O    -4.664000000     2.687000000     0.551000000
H    -5.295000000     2.303000000     1.160000000
H    -5.050000000     3.527000000     0.304000000
O     2.760000000     5.007000000     4.854000000
H     2.407000000     5.857000000     5.113000000
H     2.827000000     4.515000000     5.672000000
O     0.422000000     3.167000000     3.696000000
H     0.459000000     3.033000000     2.749000000
H     1.105000000     3.815000000     3.872000000
O    -0.126000000    -0.671000000     4.124000000
H    -0.384000000    -1.374000000     3.527000000
H     0.796000000    -0.511000000     3.921000000
O     4.369000000     1.274000000    -1.599000000
H     3.914000000     0.574000000    -2.068000000
H     4.355000000     0.997000000    -0.683000000
O     4.716000000    -3.559000000    -3.141000000
H     3.880000000    -3.143000000    -3.351000000
H     4.806000000    -4.256000000    -3.790000000
O    -0.310000000     4.954000000     1.040000000
H     0.104000000     5.509000000     1.700000000
H    -1.125000000     4.662000000     1.450000000
O     5.530000000     4.646000000     1.947000000
H     4.960000000     3.879000000     1.896000000
H     5.621000000     4.816000000     2.884000000
O    -2.541000000     0.826000000     4.584000000
H    -3.136000000     0.088000000     4.455000000
H    -1.702000000     0.522000000     4.237000000
O    -0.524000000    -2.394000000    -5.990000000
H    -0.628000000    -2.422000000    -5.039000000
H    -1.354000000    -2.042000000    -6.311000000
O    -3.130000000    -3.165000000    -4.664000000
H    -2.886000000    -2.732000000    -3.846000000
H    -3.912000000    -3.671000000    -4.443000000
O    -3.381000000    -3.330000000    -1.061000000
H    -3.223000000    -2.545000000    -1.585000000
H    -4.070000000    -3.073000000    -0.448000000
O     0.836000000     0.217000000    -4.195000000
H     0.291000000    -0.541000000    -3.981000000
H     0.476000000     0.545000000    -5.019000000
O     2.462000000    -0.057000000     3.528000000
H     3.229000000    -0.044000000     4.100000000
H     2.563000000     0.718000000     2.975000000
O     2.244000000    -2.945000000    -4.452000000
H     1.935000000    -3.430000000    -5.217000000
H     1.460000000    -2.519000000    -4.106000000
O    -2.891000000     2.989000000    -3.810000000
H    -3.298000000     2.982000000    -4.676000000
H    -2.536000000     3.874000000    -3.719000000
O     0.005000000    -4.540000000    -3.577000000
H     0.211000000    -4.725000000    -4.494000000
H    -0.278000000    -3.626000000    -3.575000000
O     2.283000000    -5.229000000    -2.001000000
H     2.848000000    -5.609000000    -2.674000000
H     1.570000000    -4.819000000    -2.491000000
O    -5.745000000    -0.823000000    -0.399000000
H    -5.289000000    -0.128000000    -0.872000000
H    -5.691000000    -0.563000000     0.520000000
O    -2.769000000     4.630000000     2.200000000
H    -2.876000000     5.517000000     2.543000000
H    -3.660000000     4.283000000     2.150000000
O     2.173000000     1.483000000     7.363000000
H     1.390000000     1.503000000     6.812000000
H     2.896000000     1.648000000     6.758000000
