158
-3041.71565
C     1.368000000    -0.565000000    -0.365000000
H     2.405000000    -0.840000000    -0.541000000
C     1.080000000     0.375000000     0.645000000
H     1.894000000     0.674000000     1.300000000
C    -0.221000000     0.807000000     0.900000000
H    -0.347000000     1.619000000     1.606000000
C    -1.291000000     0.266000000     0.268000000
H    -2.323000000     0.508000000     0.509000000
C    -1.043000000    -0.697000000    -0.695000000
H    -1.876000000    -1.003000000    -1.324000000
C     0.295000000    -1.030000000    -1.142000000
C     0.505000000    -1.754000000    -2.498000000
O    -0.428000000    -1.980000000    -3.228000000
O     1.581000000    -2.277000000    -2.681000000
O     3.786000000     4.108000000    -0.660000000
H     3.053000000     3.528000000    -0.869000000
H     3.497000000     4.588000000     0.116000000
O    -6.832000000    -2.023000000     0.033000000
H    -6.148000000    -2.690000000     0.097000000
H    -6.375000000    -1.197000000     0.190000000
O     2.719000000     0.572000000     3.915000000
H     2.440000000    -0.330000000     3.759000000
H     3.239000000     0.799000000     3.144000000
O    -3.740000000     5.676000000     0.958000000
H    -3.823000000     4.858000000     1.448000000
H    -3.189000000     6.232000000     1.509000000
O     3.836000000     1.313000000    -2.869000000
H     4.142000000     1.667000000    -3.704000000
H     2.915000000     1.100000000    -3.022000000
O    -4.421000000    -2.400000000    -1.903000000
H    -4.282000000    -2.168000000    -2.821000000
H    -5.102000000    -1.797000000    -1.604000000
O    -1.804000000     0.697000000     5.009000000
H    -2.172000000     1.068000000     5.811000000
H    -1.290000000    -0.054000000     5.308000000
O     0.800000000     2.859000000     6.080000000
H     0.945000000     3.805000000     6.092000000
H     0.599000000     2.659000000     5.166000000
O     1.315000000     0.067000000     6.397000000
H     1.127000000     0.921000000     6.785000000
H     1.736000000     0.271000000     5.562000000
O    -0.756000000    -6.040000000    -1.649000000
H    -1.555000000    -6.495000000    -1.386000000
H    -1.047000000    -5.401000000    -2.299000000
O    -0.320000000    -4.060000000    -7.368000000
H     0.262000000    -4.049000000    -8.128000000
H    -0.277000000    -3.169000000    -7.020000000
O    -5.053000000     2.152000000     4.911000000
H    -5.885000000     1.698000000     4.777000000
H    -4.422000000     1.652000000     4.392000000
O     5.845000000    -3.092000000     2.394000000
H     5.229000000    -2.913000000     3.104000000
H     5.692000000    -2.390000000     1.762000000
O    -0.073000000     0.039000000    -7.224000000
H    -0.792000000     0.190000000    -6.611000000
H     0.519000000    -0.552000000    -6.758000000
O     0.318000000    -1.964000000     2.214000000
H     0.432000000    -2.706000000     1.622000000
H     0.721000000    -1.226000000     1.756000000
O     2.989000000    -2.937000000     1.291000000
H     2.949000000    -3.583000000     0.587000000
H     3.723000000    -2.369000000     1.054000000
O    -3.342000000    -2.529000000    -5.022000000
H    -3.037000000    -3.411000000    -4.810000000
H    -4.224000000    -2.658000000    -5.373000000
O    -0.308000000    -4.680000000     0.936000000
H    -0.092000000    -5.462000000     1.445000000
H    -0.484000000    -5.009000000     0.054000000
O     1.258000000     2.967000000    -1.278000000
H     1.146000000     3.109000000    -0.338000000
H     0.905000000     2.091000000    -1.433000000
O     6.350000000     0.339000000    -1.829000000
H     5.411000000     0.424000000    -1.995000000
H     6.707000000     1.206000000    -2.020000000
O    -1.978000000     4.226000000    -1.161000000
H    -2.131000000     4.573000000    -0.283000000
H    -2.467000000     3.403000000    -1.182000000
O    -1.673000000    -0.285000000    -4.651000000
H    -2.290000000    -0.890000000    -5.062000000
H    -1.150000000    -0.835000000    -4.068000000
O    -3.765000000     0.584000000     2.969000000
H    -2.958000000     0.610000000     3.484000000
H    -3.853000000    -0.332000000     2.707000000
O     1.339000000    -5.060000000    -4.786000000
H     1.869000000    -5.147000000    -3.994000000
H     1.756000000    -4.352000000    -5.277000000
O    -4.336000000    -3.635000000     0.656000000
H    -3.901000000    -3.285000000    -0.122000000
H    -3.819000000    -3.300000000     1.390000000
O     1.625000000    -2.754000000     4.318000000
H     2.135000000    -3.502000000     4.009000000
H     1.280000000    -2.353000000     3.520000000
O     1.321000000     5.938000000    -0.636000000
H     0.813000000     6.017000000     0.171000000
H     0.902000000     5.223000000    -1.114000000
O    -2.856000000     1.989000000    -3.861000000
H    -2.389000000     1.159000000    -3.954000000
H    -2.711000000     2.440000000    -4.693000000
O     4.403000000     0.533000000     1.952000000
H     4.285000000    -0.089000000     1.234000000
H     5.260000000     0.315000000     2.320000000
O    -4.157000000     3.565000000     2.317000000
H    -4.198000000     3.404000000     3.260000000
H    -4.193000000     2.694000000     1.923000000
O    -0.643000000     3.105000000     3.528000000
H    -0.950000000     2.211000000     3.374000000
H    -1.219000000     3.440000000     4.216000000
O    -4.493000000     2.249000000    -1.546000000
H    -5.318000000     2.533000000    -1.939000000
H    -3.892000000     2.162000000    -2.286000000
O     3.304000000     4.818000000     2.883000000
H     4.037000000     4.475000000     3.395000000
H     3.684000000     5.527000000     2.365000000
O     5.382000000    -1.471000000     0.262000000
H     5.877000000    -0.761000000    -0.146000000
H     5.479000000    -2.208000000    -0.342000000
O     5.046000000    -3.609000000    -1.304000000
H     4.915000000    -3.233000000    -2.174000000
H     4.425000000    -4.337000000    -1.262000000
O     1.246000000     3.816000000     1.436000000
H     1.972000000     4.095000000     1.993000000
H     0.568000000     3.534000000     2.050000000
O     1.419000000    -1.679000000    -5.459000000
H     1.102000000    -1.935000000    -4.593000000
H     1.913000000    -2.439000000    -5.768000000
O     0.288000000     6.522000000     1.877000000
H     0.773000000     6.528000000     2.702000000
H    -0.632000000     6.490000000     2.140000000
O    -6.989000000     0.005000000     2.666000000
H    -6.275000000    -0.055000000     2.031000000
H    -7.259000000     0.923000000     2.637000000
O    -0.952000000    -4.480000000    -3.546000000
H    -0.795000000    -3.587000000    -3.239000000
H    -0.258000000    -4.638000000    -4.187000000
O    -2.339000000    -2.985000000     2.553000000
H    -2.173000000    -3.927000000     2.592000000
H    -1.484000000    -2.585000000     2.709000000
O     1.336000000     1.107000000    -4.479000000
H     1.014000000     0.270000000    -4.813000000
H     0.606000000     1.713000000    -4.606000000
O     2.768000000    -3.702000000    -6.656000000
H     3.055000000    -4.548000000    -7.000000000
H     3.255000000    -3.057000000    -7.170000000
O     4.053000000    -2.666000000    -3.639000000
H     4.400000000    -1.988000000    -4.220000000
H     3.124000000    -2.454000000    -3.551000000
O    -5.124000000     0.174000000     0.058000000
H    -5.112000000     0.745000000    -0.710000000
H    -4.206000000    -0.054000000     0.202000000
O     2.311000000    -4.593000000    -1.313000000
H     2.158000000    -3.686000000    -1.577000000
H     1.441000000    -4.990000000    -1.303000000
O    -1.933000000     4.350000000     5.347000000
H    -1.777000000     5.286000000     5.470000000
H    -2.589000000     4.128000000     6.008000000
O     4.128000000    -5.358000000    -3.484000000
H     4.812000000    -5.638000000    -4.091000000
H     4.137000000    -4.402000000    -3.536000000
