158
-3033.27716
C     1.316000000    -0.584000000    -0.270000000
H     2.320000000    -0.984000000    -0.382000000
C     0.972000000     0.143000000     0.833000000
H     1.703000000     0.398000000     1.596000000
C    -0.321000000     0.612000000     1.042000000
H    -0.612000000     1.109000000     1.948000000
C    -1.228000000     0.495000000    -0.005000000
H    -2.243000000     0.870000000     0.102000000
C    -0.865000000    -0.151000000    -1.237000000
H    -1.615000000    -0.311000000    -2.007000000
C     0.353000000    -0.815000000    -1.337000000
C     0.660000000    -1.628000000    -2.554000000
O    -0.034000000    -1.527000000    -3.549000000
O     1.500000000    -2.457000000    -2.533000000
O     4.819000000     1.585000000     0.339000000
H     4.182000000     2.026000000    -0.224000000
H     4.378000000     1.510000000     1.185000000
O     0.950000000    -1.512000000     4.868000000
H     1.648000000    -1.933000000     4.366000000
H     1.207000000    -1.633000000     5.783000000
O    -3.260000000     6.028000000     0.225000000
H    -3.474000000     5.216000000     0.684000000
H    -3.303000000     6.704000000     0.901000000
O     3.189000000     3.432000000    -1.266000000
H     3.157000000     4.384000000    -1.360000000
H     2.274000000     3.155000000    -1.326000000
O    -2.580000000    -2.738000000    -3.669000000
H    -1.697000000    -2.382000000    -3.770000000
H    -3.129000000    -1.973000000    -3.497000000
O    -2.725000000     2.338000000     5.071000000
H    -2.726000000     2.628000000     5.983000000
H    -1.799000000     2.310000000     4.830000000
O     0.072000000     2.005000000     4.516000000
H     0.462000000     2.656000000     3.933000000
H     0.791000000     1.408000000     4.724000000
O    -2.665000000     4.898000000     4.356000000
H    -3.142000000     5.452000000     4.973000000
H    -2.563000000     4.063000000     4.812000000
O    -1.228000000    -3.780000000    -1.457000000
H    -1.647000000    -3.651000000    -2.308000000
H    -1.320000000    -4.717000000    -1.284000000
O     0.480000000    -2.000000000    -7.725000000
H     1.031000000    -1.772000000    -6.976000000
H     0.263000000    -1.159000000    -8.128000000
O     2.884000000     1.012000000    -6.292000000
H     2.647000000     0.089000000    -6.383000000
H     2.691000000     1.220000000    -5.377000000
O     4.684000000    -2.260000000     2.809000000
H     5.062000000    -3.046000000     2.413000000
H     3.740000000    -2.367000000     2.700000000
O    -3.348000000    -2.471000000    -0.320000000
H    -3.042000000    -1.826000000     0.317000000
H    -2.560000000    -2.955000000    -0.568000000
O     2.094000000    -3.163000000     2.436000000
H     1.169000000    -3.312000000     2.241000000
H     2.558000000    -3.807000000     1.901000000
O    -2.711000000    -0.903000000    -6.561000000
H    -2.507000000    -1.668000000    -7.099000000
H    -3.108000000    -1.267000000    -5.769000000
O    -4.337000000    -0.505000000    -3.800000000
H    -4.124000000     0.338000000    -4.199000000
H    -4.675000000    -0.280000000    -2.933000000
O    -0.227000000    -3.981000000     1.290000000
H    -0.947000000    -4.164000000     1.894000000
H    -0.658000000    -3.728000000     0.473000000
O     0.570000000     2.959000000    -1.528000000
H     0.374000000     2.219000000    -0.953000000
H    -0.072000000     3.627000000    -1.287000000
O    -1.553000000     4.713000000    -1.407000000
H    -2.087000000     5.274000000    -0.844000000
H    -2.188000000     4.236000000    -1.941000000
O    -0.446000000     0.388000000    -5.291000000
H    -1.298000000     0.217000000    -5.692000000
H    -0.277000000    -0.383000000    -4.749000000
O    -4.541000000     1.069000000     3.578000000
H    -4.018000000     1.384000000     4.315000000
H    -5.286000000     0.627000000     3.985000000
O     0.930000000    -4.477000000    -4.112000000
H     0.906000000    -3.694000000    -3.561000000
H     1.860000000    -4.619000000    -4.286000000
O     0.157000000    -7.124000000    -3.822000000
H     0.483000000    -6.254000000    -3.591000000
H    -0.305000000    -6.994000000    -4.650000000
O    -1.678000000    -1.686000000     3.900000000
H    -0.760000000    -1.540000000     4.127000000
H    -1.922000000    -2.477000000     4.380000000
O     0.479000000     5.820000000     0.611000000
H     0.374000000     6.028000000     1.539000000
H    -0.411000000     5.839000000     0.259000000
O    -6.123000000     2.969000000    -1.421000000
H    -6.522000000     3.694000000    -1.903000000
H    -6.379000000     3.118000000    -0.510000000
O     4.215000000    -1.024000000     5.165000000
H     4.552000000    -1.562000000     4.450000000
H     4.990000000    -0.590000000     5.524000000
O    -3.866000000     3.825000000     2.110000000
H    -3.625000000     4.390000000     2.845000000
H    -4.236000000     3.044000000     2.521000000
O     1.799000000     3.788000000     2.748000000
H     1.040000000     3.702000000     2.170000000
H     1.717000000     4.666000000     3.121000000
O    -3.446000000     3.298000000    -2.623000000
H    -4.324000000     3.394000000    -2.254000000
H    -3.568000000     2.736000000    -3.388000000
O     4.008000000     4.961000000     1.321000000
H     3.255000000     4.401000000     1.132000000
H     3.802000000     5.362000000     2.165000000
O     7.093000000     0.203000000    -0.700000000
H     6.322000000     0.702000000    -0.431000000
H     6.803000000    -0.289000000    -1.468000000
O     6.620000000    -1.662000000    -2.772000000
H     5.731000000    -1.919000000    -3.017000000
H     7.080000000    -2.490000000    -2.635000000
O     3.691000000     1.129000000     3.195000000
H     3.706000000     0.222000000     3.502000000
H     3.763000000     1.653000000     3.993000000
O     1.829000000    -1.824000000    -5.609000000
H     1.427000000    -1.687000000    -4.751000000
H     2.535000000    -2.449000000    -5.444000000
O    -0.203000000     6.078000000     3.327000000
H    -0.189000000     6.652000000     4.093000000
H    -0.618000000     5.273000000     3.638000000
O    -0.713000000    -3.860000000    -6.325000000
H    -0.147000000    -3.953000000    -5.558000000
H    -0.309000000    -3.159000000    -6.836000000
O    -3.187000000    -0.935000000     1.851000000
H    -2.641000000    -1.243000000     2.574000000
H    -3.493000000    -0.073000000     2.132000000
O     1.333000000     2.217000000    -4.045000000
H     0.804000000     1.454000000    -4.280000000
H     1.123000000     2.381000000    -3.126000000
O    -1.055000000     0.106000000     6.812000000
H    -0.717000000     0.592000000     6.060000000
H    -0.930000000     0.696000000     7.555000000
O     4.029000000    -2.662000000    -2.769000000
H     4.088000000    -3.499000000    -2.309000000
H     3.117000000    -2.393000000    -2.662000000
O    -5.122000000    -0.297000000    -1.102000000
H    -5.458000000     0.216000000    -0.367000000
H    -4.498000000    -0.905000000    -0.705000000
O     1.630000000    -4.786000000    -0.711000000
H     1.504000000    -4.168000000    -1.431000000
H     1.049000000    -4.470000000    -0.020000000
O    -2.574000000    -5.319000000    -4.346000000
H    -2.739000000    -4.389000000    -4.190000000
H    -2.423000000    -5.381000000    -5.289000000
O     4.140000000    -5.049000000    -1.486000000
H     4.178000000    -6.003000000    -1.561000000
H     3.293000000    -4.875000000    -1.076000000
O     6.993000000    -0.784000000     2.017000000
H     6.129000000    -1.187000000     1.928000000
H     7.305000000    -0.686000000     1.118000000
O     1.598000000    -1.022000000     7.601000000
H     0.791000000    -0.601000000     7.305000000
H     2.184000000    -0.295000000     7.812000000
O     3.428000000    -5.176000000    -5.103000000
H     4.026000000    -4.455000000    -4.907000000
H     3.646000000    -5.432000000    -5.999000000
