158
-3013.69631
C     1.115000000     0.886000000    -0.483000000
H     1.849000000     1.633000000    -0.777000000
C     0.253000000     1.199000000     0.545000000
H     0.205000000     2.131000000     1.103000000
C    -0.785000000     0.251000000     0.904000000
H    -1.506000000     0.500000000     1.604000000
C    -0.823000000    -0.988000000     0.277000000
H    -1.705000000    -1.608000000     0.412000000
C     0.134000000    -1.352000000    -0.640000000
H     0.071000000    -2.351000000    -1.064000000
C     1.096000000    -0.422000000    -1.056000000
C     2.056000000    -0.731000000    -2.145000000
O     1.948000000    -1.726000000    -2.810000000
O     2.671000000     0.165000000    -2.798000000
O     2.467000000     4.880000000    -3.649000000
H     1.542000000     4.694000000    -3.811000000
H     2.501000000     5.145000000    -2.730000000
O    -6.673000000     2.011000000     2.251000000
H    -6.562000000     2.884000000     1.873000000
H    -7.419000000     1.639000000     1.780000000
O    -0.861000000     7.356000000     0.669000000
H    -0.541000000     6.461000000     0.781000000
H    -0.848000000     7.499000000    -0.277000000
O     0.127000000     3.575000000     4.820000000
H     0.173000000     3.763000000     3.882000000
H     0.232000000     2.625000000     4.879000000
O     2.796000000    -4.450000000    -2.042000000
H     2.523000000    -3.532000000    -2.038000000
H     2.073000000    -4.912000000    -2.467000000
O     5.535000000    -2.411000000    -6.233000000
H     6.423000000    -2.271000000    -5.904000000
H     4.984000000    -2.395000000    -5.451000000
O     0.898000000    -5.141000000     0.887000000
H     0.239000000    -4.937000000     0.223000000
H     0.395000000    -5.289000000     1.687000000
O     1.224000000     0.629000000    -4.992000000
H     0.386000000     0.462000000    -4.561000000
H     1.880000000     0.458000000    -4.317000000
O     4.674000000    -1.998000000    -3.550000000
H     3.834000000    -1.545000000    -3.621000000
H     4.498000000    -2.738000000    -2.969000000
O     2.150000000    -3.546000000    -4.956000000
H     2.080000000    -2.994000000    -4.177000000
H     1.244000000    -3.714000000    -5.213000000
O    -0.760000000    -4.663000000    -1.268000000
H    -0.253000000    -5.025000000    -1.994000000
H    -1.370000000    -4.053000000    -1.683000000
O    -1.161000000    -1.476000000    -6.884000000
H    -0.877000000    -1.073000000    -6.063000000
H    -1.821000000    -2.116000000    -6.621000000
O    -3.994000000    -0.851000000     3.411000000
H    -4.589000000    -0.756000000     2.667000000
H    -4.561000000    -1.094000000     4.142000000
O     7.332000000     0.091000000    -3.255000000
H     6.766000000    -0.668000000    -3.395000000
H     7.902000000    -0.166000000    -2.530000000
O    -4.203000000    -1.147000000    -1.475000000
H    -4.023000000    -0.213000000    -1.366000000
H    -5.153000000    -1.220000000    -1.383000000
O     6.035000000     3.954000000    -1.714000000
H     6.278000000     4.773000000    -2.147000000
H     5.515000000     3.484000000    -2.366000000
O    -1.500000000    -1.591000000     4.303000000
H    -1.386000000    -2.526000000     4.470000000
H    -2.320000000    -1.533000000     3.813000000
O    -0.631000000    -0.986000000    -4.066000000
H     0.120000000    -1.199000000    -3.513000000
H    -1.335000000    -1.546000000    -3.739000000
O    -3.191000000     5.122000000     0.990000000
H    -3.361000000     4.180000000     1.023000000
H    -2.475000000     5.214000000     0.362000000
O     3.926000000     2.555000000    -3.617000000
H     3.319000000     1.891000000    -3.290000000
H     3.398000000     3.351000000    -3.681000000
O     3.456000000     1.395000000     3.848000000
H     3.140000000     0.575000000     3.469000000
H     3.668000000     1.174000000     4.755000000
O    -2.787000000    -2.522000000    -3.312000000
H    -3.427000000    -2.070000000    -2.762000000
H    -3.172000000    -3.385000000    -3.467000000
O    -0.325000000     3.953000000    -0.477000000
H     0.427000000     4.117000000    -1.046000000
H    -1.082000000     4.004000000    -1.059000000
O     3.275000000     4.056000000     3.062000000
H     3.490000000     4.560000000     3.847000000
H     3.264000000     3.146000000     3.358000000
O    -2.830000000     4.256000000    -1.810000000
H    -3.159000000     5.035000000    -2.259000000
H    -2.718000000     3.608000000    -2.506000000
O    -0.979000000    -5.896000000     2.632000000
H    -1.723000000    -5.555000000     2.135000000
H    -1.363000000    -6.541000000     3.226000000
O     2.146000000     5.784000000    -1.192000000
H     2.122000000     6.719000000    -0.990000000
H     2.914000000     5.457000000    -0.723000000
O    -1.734000000     2.049000000    -3.073000000
H    -1.902000000     1.489000000    -3.831000000
H    -1.708000000     1.446000000    -2.330000000
O    -3.309000000    -5.046000000     0.670000000
H    -2.888000000    -4.939000000    -0.183000000
H    -4.244000000    -4.951000000     0.489000000
O    -4.199000000     1.608000000    -0.896000000
H    -3.749000000     2.345000000    -1.309000000
H    -4.054000000     1.734000000     0.042000000
O     4.957000000    -0.001000000    -1.411000000
H     4.362000000     0.045000000    -2.159000000
H     5.813000000     0.234000000    -1.771000000
O     0.276000000     0.811000000     4.875000000
H     0.031000000    -0.087000000     5.097000000
H     1.165000000     0.739000000     4.528000000
O     2.424000000    -0.848000000    -6.798000000
H     2.136000000    -1.757000000    -6.723000000
H     1.784000000    -0.351000000    -6.287000000
O    -3.958000000     2.501000000     1.669000000
H    -3.248000000     2.169000000     2.219000000
H    -4.747000000     2.089000000     2.020000000
O     0.340000000     4.351000000     2.295000000
H     0.184000000     4.179000000     1.367000000
H     1.274000000     4.183000000     2.417000000
O    -2.397000000    -4.163000000     4.829000000
H    -3.260000000    -4.222000000     4.420000000
H    -1.825000000    -4.673000000     4.256000000
O    -2.357000000     3.151000000     6.507000000
H    -1.410000000     3.080000000     6.385000000
H    -2.730000000     2.643000000     5.787000000
O     4.273000000    -5.272000000    -5.414000000
H     3.905000000    -4.642000000    -4.794000000
H     3.840000000    -6.099000000    -5.201000000
O     3.868000000     4.848000000     0.374000000
H     3.731000000     4.348000000     1.178000000
H     4.804000000     4.761000000     0.194000000
O    -6.067000000    -0.673000000     1.812000000
H    -6.842000000    -0.879000000     1.289000000
H    -6.115000000     0.273000000     1.947000000
O    -6.164000000     1.970000000    -2.669000000
H    -5.513000000     1.903000000    -1.971000000
H    -6.731000000     1.210000000    -2.542000000
O     2.700000000    -2.936000000     1.400000000
H     1.972000000    -3.538000000     1.247000000
H     3.257000000    -3.033000000     0.629000000
O     6.064000000     1.664000000    -5.166000000
H     5.349000000     1.928000000    -4.587000000
H     6.733000000     1.315000000    -4.577000000
O     1.783000000    -0.591000000     2.684000000
H     1.036000000    -0.278000000     2.174000000
H     2.105000000    -1.349000000     2.196000000
O     4.642000000    -0.384000000     1.341000000
H     3.739000000    -0.257000000     1.632000000
H     4.622000000    -0.188000000     0.405000000
O    -4.527000000    -4.839000000     3.222000000
H    -5.430000000    -4.783000000     2.908000000
H    -4.004000000    -4.954000000     2.429000000
O    -2.728000000     1.534000000     4.408000000
H    -1.803000000     1.342000000     4.561000000
H    -3.166000000     0.687000000     4.491000000
O     0.332000000    -6.022000000    -3.188000000
H     0.418000000    -5.895000000    -4.133000000
H     0.467000000    -6.961000000    -3.060000000
