158
-3012.10816
C     1.062000000     0.703000000    -0.731000000
H     1.915000000     1.246000000    -1.129000000
C     0.273000000     1.293000000     0.260000000
H     0.597000000     2.257000000     0.642000000
C    -0.677000000     0.489000000     0.863000000
H    -1.161000000     0.850000000     1.789000000
C    -1.008000000    -0.745000000     0.394000000
H    -1.732000000    -1.274000000     1.007000000
C    -0.258000000    -1.296000000    -0.614000000
H    -0.553000000    -2.274000000    -0.986000000
C     0.830000000    -0.642000000    -1.210000000
C     1.705000000    -1.332000000    -2.227000000
O     1.408000000    -2.483000000    -2.487000000
O     2.719000000    -0.819000000    -2.701000000
O    -0.398000000     4.565000000    -3.180000000
H    -0.363000000     3.617000000    -3.051000000
H    -1.323000000     4.787000000    -3.070000000
O     1.392000000    -5.293000000     1.375000000
H     1.312000000    -5.432000000     0.432000000
H     1.005000000    -6.076000000     1.767000000
O     3.952000000     2.250000000     3.576000000
H     4.341000000     1.578000000     3.016000000
H     3.049000000     2.326000000     3.267000000
O     3.488000000    -6.885000000    -1.813000000
H     2.729000000    -6.314000000    -1.695000000
H     3.125000000    -7.694000000    -2.173000000
O     1.311000000    -5.458000000    -5.146000000
H     0.416000000    -5.173000000    -4.959000000
H     1.864000000    -4.836000000    -4.673000000
O    -3.921000000     2.853000000     1.415000000
H    -3.649000000     3.448000000     0.717000000
H    -4.876000000     2.914000000     1.424000000
O    -0.452000000    -2.753000000    -4.279000000
H    -1.167000000    -3.298000000    -3.950000000
H     0.035000000    -2.499000000    -3.496000000
O     6.727000000    -2.056000000    -2.793000000
H     6.593000000    -2.991000000    -2.638000000
H     6.071000000    -1.625000000    -2.245000000
O     1.578000000    -5.071000000    -1.547000000
H     0.769000000    -5.368000000    -1.961000000
H     1.582000000    -4.123000000    -1.680000000
O    -2.562000000    -5.171000000     0.674000000
H    -2.815000000    -5.970000000     1.136000000
H    -2.862000000    -5.309000000    -0.224000000
O     4.513000000    -1.031000000    -4.881000000
H     3.948000000    -0.588000000    -4.248000000
H     5.383000000    -1.005000000    -4.484000000
O    -1.393000000    -4.869000000    -5.751000000
H    -1.100000000    -4.366000000    -4.991000000
H    -1.612000000    -5.731000000    -5.398000000
O    -4.132000000    -1.709000000     6.476000000
H    -4.147000000    -0.814000000     6.136000000
H    -3.322000000    -2.083000000     6.130000000
O    -4.456000000    -1.581000000     0.707000000
H    -3.892000000    -1.719000000    -0.055000000
H    -5.325000000    -1.855000000     0.414000000
O     3.796000000     2.519000000    -3.306000000
H     2.887000000     2.263000000    -3.464000000
H     3.919000000     3.306000000    -3.837000000
O    -2.389000000    -2.644000000     4.614000000
H    -1.641000000    -2.990000000     4.127000000
H    -3.086000000    -2.570000000     3.961000000
O     1.096000000    -1.373000000     4.588000000
H     1.385000000    -1.015000000     3.749000000
H     0.983000000    -2.309000000     4.423000000
O    -2.138000000    -4.268000000    -2.814000000
H    -3.027000000    -4.613000000    -2.726000000
H    -1.585000000    -4.921000000    -2.384000000
O    -2.666000000    -0.087000000    -4.319000000
H    -3.445000000    -0.375000000    -4.795000000
H    -1.932000000    -0.392000000    -4.853000000
O     3.853000000    -1.969000000    -7.417000000
H     4.707000000    -2.379000000    -7.554000000
H     3.825000000    -1.783000000    -6.478000000
O     1.522000000     1.288000000    -4.434000000
H     1.565000000     0.337000000    -4.531000000
H     0.680000000     1.447000000    -4.007000000
O    -3.385000000    -1.726000000    -1.908000000
H    -2.858000000    -2.489000000    -2.144000000
H    -3.027000000    -1.014000000    -2.438000000
O    -4.449000000     6.082000000     3.408000000
H    -4.494000000     6.957000000     3.023000000
H    -3.529000000     5.832000000     3.329000000
O    -0.641000000     1.586000000    -2.938000000
H    -0.603000000     1.124000000    -2.100000000
H    -1.385000000     1.194000000    -3.394000000
O    -4.181000000    -3.763000000     2.374000000
H    -3.541000000    -4.254000000     1.859000000
H    -4.257000000    -2.922000000     1.923000000
O    -1.325000000     4.386000000     5.766000000
H    -1.521000000     3.749000000     5.079000000
H    -0.830000000     3.890000000     6.418000000
O     1.293000000     2.769000000     3.513000000
H     0.356000000     2.582000000     3.582000000
H     1.347000000     3.724000000     3.503000000
O    -4.093000000     0.367000000     2.336000000
H    -3.834000000     1.120000000     1.805000000
H    -4.466000000    -0.252000000     1.708000000
O     4.993000000    -0.581000000    -1.419000000
H     4.136000000    -0.763000000    -1.804000000
H     4.890000000     0.274000000    -1.001000000
O     4.560000000    -0.272000000     2.510000000
H     3.687000000    -0.650000000     2.404000000
H     4.847000000    -0.569000000     3.373000000
O     0.825000000     1.569000000    -7.274000000
H     1.370000000     2.319000000    -7.033000000
H     1.040000000     0.899000000    -6.625000000
O     3.194000000    -3.498000000    -4.205000000
H     3.896000000    -2.857000000    -4.317000000
H     2.733000000    -3.213000000    -3.416000000
O     1.646000000    -0.239000000     6.828000000
H     1.499000000    -0.701000000     6.002000000
H     0.790000000    -0.239000000     7.257000000
O    -1.984000000     5.634000000     1.800000000
H    -1.929000000     4.727000000     1.499000000
H    -1.910000000     6.157000000     1.001000000
O    -2.608000000     3.060000000     3.825000000
H    -2.222000000     2.268000000     4.199000000
H    -3.128000000     2.745000000     3.085000000
O    -0.144000000    -3.902000000     3.451000000
H    -0.644000000    -4.635000000     3.810000000
H     0.122000000    -4.197000000     2.580000000
O     4.953000000    -5.191000000    -5.718000000
H     4.880000000    -6.116000000    -5.482000000
H     4.301000000    -4.752000000    -5.173000000
O     7.119000000     2.222000000    -0.162000000
H     7.222000000     3.121000000    -0.473000000
H     6.175000000     2.064000000    -0.192000000
O     4.385000000     1.918000000    -0.599000000
H     4.306000000     2.761000000    -0.153000000
H     4.208000000     2.116000000    -1.519000000
O    -4.528000000     0.534000000     5.066000000
H    -4.358000000     0.346000000     4.143000000
H    -5.482000000     0.571000000     5.131000000
O     5.210000000    -4.809000000    -1.484000000
H     4.531000000    -5.429000000    -1.751000000
H     4.865000000    -4.404000000    -0.688000000
O     6.720000000     1.353000000    -3.168000000
H     5.815000000     1.453000000    -3.463000000
H     6.645000000     1.042000000    -2.266000000
O     2.149000000    -1.417000000     1.846000000
H     2.266000000    -2.295000000     1.483000000
H     1.412000000    -1.052000000     1.357000000
O     2.989000000     4.421000000    -0.408000000
H     3.630000000     4.962000000     0.053000000
H     2.611000000     5.006000000    -1.065000000
O     4.767000000    -2.989000000     0.673000000
H     5.700000000    -2.925000000     0.877000000
H     4.546000000    -2.138000000     0.295000000
O    -1.147000000     1.062000000     4.961000000
H    -1.400000000     0.214000000     4.597000000
H    -1.406000000     1.015000000     5.881000000
O    -0.663000000    -6.493000000    -2.590000000
H    -0.578000000    -6.991000000    -3.403000000
H    -0.348000000    -7.089000000    -1.910000000
O     0.957000000    -1.411000000    -6.106000000
H     0.515000000    -1.978000000    -5.475000000
H     1.285000000    -2.010000000    -6.778000000
