158
-3033.76378
C     1.403000000     0.431000000    -0.027000000
H     2.359000000     0.948000000    -0.018000000
C     0.500000000     0.759000000     0.950000000
H     0.811000000     1.437000000     1.742000000
C    -0.809000000     0.199000000     0.930000000
H    -1.498000000     0.422000000     1.719000000
C    -1.104000000    -0.610000000    -0.121000000
H    -2.067000000    -1.105000000    -0.215000000
C    -0.193000000    -0.903000000    -1.149000000
H    -0.543000000    -1.551000000    -1.948000000
C     1.078000000    -0.431000000    -1.076000000
C     2.113000000    -0.792000000    -2.147000000
O     1.702000000    -1.454000000    -3.070000000
O     3.227000000    -0.310000000    -2.119000000
O    -1.321000000     5.349000000    -1.390000000
H    -1.107000000     4.475000000    -1.065000000
H    -2.267000000     5.426000000    -1.268000000
O     5.197000000    -0.845000000    -6.974000000
H     5.168000000    -0.737000000    -6.023000000
H     6.081000000    -0.571000000    -7.218000000
O    -2.827000000    -3.314000000    -2.534000000
H    -3.390000000    -3.684000000    -3.215000000
H    -3.436000000    -2.968000000    -1.882000000
O     1.532000000    -5.021000000    -5.490000000
H     0.954000000    -4.649000000    -4.824000000
H     1.476000000    -5.967000000    -5.355000000
O     2.281000000    -2.938000000    -7.172000000
H     1.791000000    -3.605000000    -6.692000000
H     2.038000000    -2.113000000    -6.751000000
O    -2.263000000     2.239000000     6.912000000
H    -1.987000000     3.089000000     6.570000000
H    -3.187000000     2.172000000     6.669000000
O    -3.048000000    -4.845000000     1.284000000
H    -3.479000000    -5.331000000     0.581000000
H    -2.167000000    -4.674000000     0.952000000
O    -2.669000000    -0.614000000    -3.761000000
H    -2.842000000     0.130000000    -3.184000000
H    -2.871000000    -1.383000000    -3.228000000
O     7.395000000    -0.094000000    -4.014000000
H     6.532000000    -0.417000000    -3.758000000
H     7.223000000     0.758000000    -4.414000000
O     2.442000000     2.356000000    -5.342000000
H     2.290000000     2.625000000    -4.436000000
H     3.379000000     2.492000000    -5.478000000
O    -0.274000000    -6.507000000    -1.858000000
H    -0.430000000    -5.858000000    -1.172000000
H    -0.897000000    -6.280000000    -2.548000000
O    -0.123000000    -3.248000000    -4.038000000
H    -0.990000000    -3.092000000    -3.664000000
H     0.400000000    -2.500000000    -3.749000000
O    -0.780000000    -3.872000000     3.465000000
H    -1.650000000    -3.490000000     3.582000000
H    -0.310000000    -3.236000000     2.926000000
O     4.750000000    -0.900000000    -4.152000000
H     4.633000000    -1.844000000    -4.047000000
H     4.196000000    -0.513000000    -3.474000000
O    -1.612000000    -0.729000000     4.756000000
H    -0.744000000    -0.333000000     4.684000000
H    -1.568000000    -1.260000000     5.551000000
O    -4.238000000    -0.951000000     2.170000000
H    -4.191000000    -1.717000000     2.742000000
H    -3.435000000    -0.463000000     2.357000000
O    -0.947000000    -4.329000000    -0.539000000
H    -1.211000000    -4.006000000    -1.401000000
H    -0.075000000    -3.957000000    -0.402000000
O    -4.337000000    -1.168000000     5.211000000
H    -3.388000000    -1.069000000     5.137000000
H    -4.490000000    -2.105000000     5.088000000
O    -5.264000000    -2.013000000    -1.013000000
H    -5.452000000    -2.814000000    -0.524000000
H    -6.066000000    -1.840000000    -1.506000000
O    -0.331000000    -0.474000000    -7.526000000
H     0.278000000    -0.895000000    -6.919000000
H    -0.052000000     0.441000000    -7.549000000
O     1.563000000    -3.514000000     0.044000000
H     1.960000000    -4.322000000     0.369000000
H     2.290000000    -3.032000000    -0.349000000
O     4.264000000     1.992000000    -1.442000000
H     4.098000000     1.081000000    -1.686000000
H     3.395000000     2.357000000    -1.276000000
O     1.953000000     3.433000000    -0.900000000
H     1.085000000     3.142000000    -1.180000000
H     1.803000000     3.851000000    -0.052000000
O    -0.687000000     2.688000000    -1.094000000
H    -0.366000000     2.221000000    -0.322000000
H    -1.443000000     2.179000000    -1.386000000
O    -5.948000000     3.772000000    -1.018000000
H    -5.263000000     3.252000000    -0.597000000
H    -6.748000000     3.261000000    -0.893000000
O    -5.506000000     2.635000000     1.919000000
H    -6.310000000     2.229000000     1.595000000
H    -5.794000000     3.197000000     2.638000000
O    -1.720000000     2.680000000     3.427000000
H    -2.432000000     2.096000000     3.685000000
H    -1.964000000     2.984000000     2.553000000
O    -0.415000000     5.021000000     3.924000000
H    -0.948000000     4.251000000     3.730000000
H    -0.482000000     5.125000000     4.874000000
O    -5.155000000     0.628000000    -0.360000000
H    -5.202000000    -0.245000000    -0.748000000
H    -4.867000000     0.475000000     0.540000000
O    -3.597000000    -3.540000000     3.532000000
H    -4.520000000    -3.768000000     3.643000000
H    -3.374000000    -3.863000000     2.659000000
O    -3.976000000     1.579000000     4.419000000
H    -4.078000000     0.900000000     5.085000000
H    -4.740000000     1.474000000     3.851000000
O     5.244000000    -1.836000000    -0.752000000
H     4.580000000    -1.294000000    -1.177000000
H     6.069000000    -1.561000000    -1.151000000
O    -3.082000000     1.544000000    -2.036000000
H    -3.552000000     2.062000000    -2.691000000
H    -3.690000000     1.480000000    -1.300000000
O    -3.170000000     3.616000000     1.224000000
H    -3.459000000     4.495000000     1.467000000
H    -3.950000000     3.071000000     1.326000000
O     3.482000000     0.481000000     4.803000000
H     2.974000000     1.292000000     4.819000000
H     4.208000000     0.665000000     4.206000000
O     0.843000000     1.668000000     4.973000000
H     0.117000000     1.963000000     4.423000000
H     0.784000000     2.212000000     5.758000000
O    -2.687000000    -1.825000000    -6.113000000
H    -2.434000000    -1.118000000    -6.706000000
H    -2.575000000    -1.454000000    -5.237000000
O     6.639000000     1.927000000     0.169000000
H     5.822000000     2.363000000    -0.073000000
H     7.261000000     2.191000000    -0.510000000
O     4.808000000     4.474000000     0.110000000
H     4.266000000     5.030000000     0.670000000
H     4.196000000     4.110000000    -0.531000000
O    -6.707000000    -0.152000000     5.587000000
H    -5.884000000    -0.516000000     5.259000000
H    -7.386000000    -0.682000000     5.171000000
O     0.752000000    -1.927000000     2.205000000
H     0.824000000    -2.422000000     1.389000000
H     0.705000000    -1.012000000     1.927000000
O     3.948000000    -3.416000000    -3.650000000
H     3.572000000    -4.292000000    -3.734000000
H     3.191000000    -2.840000000    -3.542000000
O     5.082000000     2.998000000    -4.287000000
H     4.900000000     2.498000000    -3.491000000
H     5.415000000     3.838000000    -3.972000000
O     2.260000000    -1.932000000     4.537000000
H     1.584000000    -1.920000000     3.859000000
H     2.702000000    -1.088000000     4.450000000
O     4.883000000    -4.444000000    -1.068000000
H     5.436000000    -3.756000000    -0.697000000
H     4.542000000    -4.066000000    -1.879000000
O     3.440000000     5.498000000    -2.282000000
H     3.600000000     6.181000000    -1.631000000
H     2.658000000     5.044000000    -1.967000000
O     1.880000000     4.657000000     1.786000000
H     2.441000000     4.580000000     2.558000000
H     1.014000000     4.863000000     2.138000000
O     1.697000000    -0.650000000    -5.707000000
H     1.655000000    -0.892000000    -4.782000000
H     2.073000000     0.230000000    -5.708000000
