158
-2982.86217
C     1.407000000     0.238000000     0.053000000
H     2.434000000     0.539000000     0.242000000
C     0.511000000     0.416000000     1.073000000
H     0.872000000     0.882000000     1.987000000
C    -0.823000000     0.156000000     0.888000000
H    -1.627000000     0.329000000     1.698000000
C    -1.347000000    -0.361000000    -0.317000000
H    -2.424000000    -0.504000000    -0.356000000
C    -0.381000000    -0.683000000    -1.302000000
H    -0.737000000    -1.159000000    -2.213000000
C     0.997000000    -0.359000000    -1.164000000
C     2.048000000    -0.704000000    -2.197000000
O     1.742000000    -1.482000000    -3.074000000
O     3.118000000    -0.164000000    -2.153000000
O    -3.003000000    -2.689000000    -4.918000000
H    -3.876000000    -2.600000000    -5.300000000
H    -3.144000000    -2.606000000    -3.975000000
O    -2.607000000    -0.131000000     7.494000000
H    -3.108000000    -0.683000000     6.892000000
H    -1.696000000    -0.248000000     7.223000000
O     1.490000000    -4.469000000    -6.200000000
H     0.707000000    -3.990000000    -6.473000000
H     1.282000000    -5.387000000    -6.376000000
O     0.632000000    -0.468000000    -7.713000000
H     0.501000000    -1.039000000    -6.956000000
H     0.170000000     0.339000000    -7.487000000
O    -4.146000000    -3.414000000     0.391000000
H    -4.175000000    -4.091000000     1.067000000
H    -4.883000000    -3.619000000    -0.185000000
O    -2.403000000     1.748000000    -3.962000000
H    -1.472000000     1.928000000    -3.829000000
H    -2.846000000     2.270000000    -3.292000000
O     5.746000000    -0.145000000    -7.012000000
H     5.603000000    -0.332000000    -6.085000000
H     5.787000000     0.810000000    -7.060000000
O     0.127000000    -1.591000000    -5.114000000
H    -0.677000000    -2.002000000    -4.796000000
H     0.654000000    -1.456000000    -4.326000000
O    -1.025000000    -2.512000000     4.213000000
H    -0.566000000    -2.289000000     5.024000000
H    -0.391000000    -2.325000000     3.521000000
O     5.108000000    -0.543000000    -4.201000000
H     4.807000000    -1.370000000    -4.576000000
H     4.617000000    -0.458000000    -3.384000000
O     0.656000000     0.363000000     6.424000000
H     1.062000000     1.046000000     6.958000000
H     0.608000000     0.742000000     5.546000000
O    -5.298000000     1.067000000     1.861000000
H    -4.711000000     1.752000000     2.182000000
H    -5.197000000     0.351000000     2.489000000
O     0.238000000    -5.971000000    -0.301000000
H     0.385000000    -5.412000000    -1.063000000
H     0.359000000    -5.389000000     0.450000000
O     5.152000000    -4.130000000     1.063000000
H     5.928000000    -4.563000000     0.705000000
H     4.910000000    -3.485000000     0.399000000
O    -3.531000000    -1.311000000     5.274000000
H    -2.789000000    -1.441000000     4.684000000
H    -4.298000000    -1.529000000     4.745000000
O    -3.909000000    -2.684000000    -2.425000000
H    -3.989000000    -2.931000000    -1.504000000
H    -4.803000000    -2.729000000    -2.764000000
O     7.200000000    -1.503000000     0.207000000
H     8.125000000    -1.508000000    -0.036000000
H     6.839000000    -0.736000000    -0.239000000
O     5.186000000    -3.926000000    -6.666000000
H     4.647000000    -3.383000000    -6.091000000
H     6.045000000    -3.504000000    -6.659000000
O     0.984000000    -4.451000000    -2.391000000
H     1.258000000    -5.076000000    -3.062000000
H     1.442000000    -3.641000000    -2.618000000
O     3.214000000     2.375000000    -2.254000000
H     3.299000000     1.427000000    -2.153000000
H     3.589000000     2.736000000    -1.451000000
O     4.828000000     3.221000000     2.534000000
H     4.207000000     3.899000000     2.799000000
H     5.597000000     3.373000000     3.083000000
O    -0.817000000     4.922000000     3.737000000
H    -0.662000000     5.542000000     3.024000000
H    -0.154000000     5.140000000     4.392000000
O     0.664000000     4.241000000    -3.208000000
H     0.808000000     3.606000000    -3.909000000
H     0.479000000     3.707000000    -2.435000000
O    -0.869000000     2.475000000    -1.378000000
H    -0.473000000     1.767000000    -0.870000000
H    -1.419000000     2.942000000    -0.749000000
O    -2.613000000     3.464000000     0.475000000
H    -2.952000000     2.976000000     1.226000000
H    -3.268000000     4.143000000     0.315000000
O    -0.316000000     5.133000000    -0.158000000
H    -0.684000000     6.010000000    -0.044000000
H    -1.023000000     4.542000000     0.100000000
O     5.850000000     2.036000000    -4.779000000
H     5.932000000     2.433000000    -3.912000000
H     5.436000000     1.188000000    -4.616000000
O    -4.395000000     1.341000000    -0.867000000
H    -3.452000000     1.201000000    -0.784000000
H    -4.741000000     1.169000000     0.008000000
O    -5.043000000    -1.987000000     2.882000000
H    -5.462000000    -2.847000000     2.864000000
H    -4.567000000    -1.934000000     2.053000000
O    -3.952000000     3.302000000     2.918000000
H    -3.603000000     3.384000000     3.805000000
H    -4.228000000     4.189000000     2.686000000
O     4.605000000    -2.072000000    -0.882000000
H     4.082000000    -1.451000000    -1.389000000
H     5.502000000    -1.747000000    -0.958000000
O     4.579000000     2.832000000    -0.033000000
H     4.605000000     2.870000000     0.923000000
H     4.768000000     3.728000000    -0.313000000
O     2.724000000     4.929000000     3.370000000
H     2.768000000     5.878000000     3.251000000
H     2.395000000     4.815000000     4.262000000
O    -3.912000000     3.523000000    -2.436000000
H    -4.613000000     4.155000000    -2.597000000
H    -4.278000000     2.920000000    -1.789000000
O    -4.108000000     5.661000000     0.232000000
H    -4.264000000     6.380000000    -0.381000000
H    -4.720000000     5.822000000     0.950000000
O     2.518000000     1.932000000     3.822000000
H     1.589000000     2.088000000     3.653000000
H     2.970000000     2.613000000     3.324000000
O    -2.417000000     2.489000000     6.236000000
H    -3.081000000     1.855000000     6.506000000
H    -2.417000000     3.147000000     6.931000000
O    -0.554000000     1.893000000     4.317000000
H    -0.859000000     2.451000000     3.601000000
H    -1.133000000     2.106000000     5.049000000
O    -3.577000000     0.014000000    -5.507000000
H    -3.472000000    -0.799000000    -5.013000000
H    -3.192000000     0.687000000    -4.945000000
O     6.198000000     0.925000000    -1.100000000
H     5.337000000     1.333000000    -1.012000000
H     6.796000000     1.656000000    -1.255000000
O     1.600000000    -2.454000000     1.967000000
H     1.024000000    -1.968000000     1.376000000
H     1.230000000    -3.336000000     1.991000000
O     3.410000000    -2.839000000    -4.567000000
H     2.944000000    -3.632000000    -4.832000000
H     2.738000000    -2.289000000    -4.165000000
O    -6.986000000     1.769000000    -1.863000000
H    -6.178000000     1.286000000    -2.034000000
H    -7.473000000     1.721000000    -2.685000000
O     3.235000000    -0.704000000     3.670000000
H     2.593000000    -1.098000000     3.080000000
H     3.170000000     0.236000000     3.502000000
O    -1.649000000    -6.003000000    -2.970000000
H    -2.519000000    -5.945000000    -2.574000000
H    -1.472000000    -5.119000000    -3.290000000
O     4.944000000    -4.192000000    -2.550000000
H     4.848000000    -3.486000000    -1.912000000
H     4.589000000    -3.831000000    -3.363000000
O     2.306000000     5.037000000     0.511000000
H     2.154000000     5.058000000     1.456000000
H     1.456000000     4.804000000     0.137000000
O     1.543000000     1.778000000    -4.361000000
H     1.520000000     0.834000000    -4.516000000
H     2.126000000     1.884000000    -3.610000000
