158
-3028.82051
C     1.309000000     0.637000000    -0.352000000
H     2.263000000     1.121000000    -0.545000000
C     0.886000000     0.404000000     0.947000000
H     1.448000000     0.648000000     1.845000000
C    -0.400000000    -0.095000000     1.147000000
H    -0.667000000    -0.266000000     2.121000000
C    -1.237000000    -0.286000000     0.105000000
H    -2.231000000    -0.709000000     0.229000000
C    -0.779000000    -0.185000000    -1.165000000
H    -1.341000000    -0.628000000    -1.983000000
C     0.533000000     0.232000000    -1.440000000
C     0.950000000     0.409000000    -2.919000000
O     0.243000000    -0.108000000    -3.819000000
O     2.010000000     0.929000000    -3.211000000
O     3.532000000    -1.268000000    -5.475000000
H     3.920000000    -1.231000000    -4.600000000
H     3.035000000    -0.453000000    -5.551000000
O    -3.876000000    -0.463000000     2.750000000
H    -3.172000000    -1.110000000     2.711000000
H    -4.108000000    -0.417000000     3.677000000
O     0.556000000    -1.081000000     7.222000000
H    -0.231000000    -1.550000000     6.946000000
H     0.233000000    -0.390000000     7.800000000
O    -3.796000000     1.713000000     0.803000000
H    -2.973000000     2.089000000     1.114000000
H    -3.913000000     0.923000000     1.330000000
O    -4.061000000    -1.001000000     5.497000000
H    -4.879000000    -1.475000000     5.647000000
H    -3.387000000    -1.559000000     5.886000000
O    -2.397000000     1.192000000    -3.993000000
H    -1.761000000     0.583000000    -3.617000000
H    -2.304000000     1.988000000    -3.470000000
O     3.109000000     4.629000000    -5.045000000
H     4.029000000     4.889000000    -5.010000000
H     2.706000000     5.253000000    -5.649000000
O    -4.206000000     4.195000000    -0.422000000
H    -4.394000000     3.330000000    -0.058000000
H    -3.480000000     4.525000000     0.108000000
O     0.567000000    -3.991000000    -1.870000000
H     1.427000000    -4.382000000    -1.717000000
H     0.581000000    -3.733000000    -2.792000000
O     0.133000000     2.197000000    -5.499000000
H    -0.707000000     1.739000000    -5.454000000
H     0.739000000     1.633000000    -5.018000000
O     3.854000000     1.970000000    -5.242000000
H     3.258000000     1.326000000    -4.858000000
H     3.541000000     2.812000000    -4.913000000
O    -3.353000000     1.612000000     6.209000000
H    -3.575000000     0.684000000     6.132000000
H    -4.174000000     2.034000000     6.465000000
O     2.486000000     0.286000000     5.534000000
H     1.888000000    -0.231000000     6.074000000
H     2.675000000     1.062000000     6.061000000
O     3.923000000    -1.656000000     2.765000000
H     3.888000000    -1.362000000     3.676000000
H     4.188000000    -0.880000000     2.272000000
O    -2.335000000    -4.752000000    -1.779000000
H    -3.019000000    -4.271000000    -1.314000000
H    -1.516000000    -4.384000000    -1.448000000
O     4.155000000    -2.679000000    -0.539000000
H     3.873000000    -2.202000000    -1.319000000
H     3.443000000    -2.554000000     0.089000000
O    -5.849000000    -1.520000000     1.275000000
H    -6.541000000    -1.811000000     1.869000000
H    -5.248000000    -1.024000000     1.830000000
O    -6.483000000     2.682000000     1.163000000
H    -7.224000000     2.240000000     1.579000000
H    -5.780000000     2.033000000     1.173000000
O     1.595000000     4.173000000     0.968000000
H     2.119000000     4.971000000     1.037000000
H     0.862000000     4.416000000     0.403000000
O    -1.620000000    -2.976000000    -5.586000000
H    -0.808000000    -3.156000000    -5.112000000
H    -2.060000000    -3.825000000    -5.638000000
O    -0.946000000     2.991000000     1.291000000
H    -0.406000000     2.302000000     0.904000000
H    -1.085000000     2.708000000     2.195000000
O     1.408000000    -2.575000000     0.406000000
H     0.874000000    -2.898000000    -0.320000000
H     1.292000000    -1.625000000     0.384000000
O    -1.638000000     2.307000000     4.085000000
H    -1.727000000     3.253000000     4.205000000
H    -2.250000000     1.927000000     4.716000000
O     2.421000000     1.004000000    -7.607000000
H     2.377000000     0.248000000    -8.193000000
H     1.506000000     1.205000000    -7.407000000
O    -3.906000000    -0.723000000    -5.771000000
H    -3.397000000    -0.174000000    -5.174000000
H    -3.254000000    -1.277000000    -6.200000000
O    -7.180000000    -0.733000000    -0.985000000
H    -6.591000000    -1.145000000    -0.353000000
H    -7.694000000    -0.115000000    -0.466000000
O     3.998000000    -0.682000000    -2.553000000
H     3.433000000     0.085000000    -2.644000000
H     4.727000000    -0.378000000    -2.012000000
O     2.055000000    -3.968000000     2.656000000
H     2.046000000    -3.113000000     3.086000000
H     1.931000000    -3.770000000     1.727000000
O    -2.139000000     0.843000000    -8.106000000
H    -1.526000000     0.354000000    -7.559000000
H    -2.493000000     1.518000000    -7.526000000
O     1.271000000     3.352000000     4.987000000
H     0.609000000     3.019000000     5.593000000
H     1.066000000     2.927000000     4.153000000
O    -1.929000000    -2.523000000     3.117000000
H    -1.019000000    -2.546000000     3.412000000
H    -2.020000000    -3.297000000     2.561000000
O     1.029000000    -2.891000000    -4.425000000
H     1.784000000    -3.112000000    -4.971000000
H     1.080000000    -1.941000000    -4.321000000
O    -1.069000000     2.334000000     7.370000000
H    -1.812000000     2.055000000     6.836000000
H    -1.124000000     1.794000000     8.159000000
O     0.622000000    -1.859000000     4.280000000
H     0.764000000    -1.042000000     3.802000000
H     1.176000000    -1.782000000     5.057000000
O     5.969000000     0.511000000    -0.979000000
H     6.063000000     0.843000000    -0.086000000
H     6.278000000     1.226000000    -1.535000000
O     6.768000000     1.690000000    -5.332000000
H     7.074000000     2.545000000    -5.028000000
H     5.828000000     1.806000000    -5.468000000
O     4.865000000     0.841000000     1.894000000
H     5.784000000     1.063000000     2.041000000
H     4.380000000     1.598000000     2.223000000
O    -0.878000000    -0.503000000    -6.139000000
H    -1.153000000    -1.420000000    -6.144000000
H    -0.432000000    -0.391000000    -5.300000000
O    -1.278000000     3.375000000    -2.225000000
H    -1.630000000     2.901000000    -1.472000000
H    -0.588000000     3.927000000    -1.859000000
O    -1.665000000    -2.631000000     6.920000000
H    -1.790000000    -3.580000000     6.925000000
H    -2.014000000    -2.338000000     7.761000000
O     3.044000000     2.836000000     2.846000000
H     2.602000000     3.079000000     2.033000000
H     2.664000000     3.413000000     3.508000000
O     0.602000000     5.831000000    -1.210000000
H     1.249000000     5.227000000    -1.576000000
H     1.116000000     6.440000000    -0.680000000
O    -2.747000000    -5.536000000     4.302000000
H    -2.062000000    -5.863000000     3.719000000
H    -3.017000000    -4.705000000     3.912000000
O    -4.477000000    -3.354000000    -0.023000000
H    -4.880000000    -4.222000000    -0.064000000
H    -5.162000000    -2.789000000     0.334000000
O    -2.315000000    -4.787000000     1.493000000
H    -2.831000000    -4.559000000     0.719000000
H    -2.643000000    -5.647000000     1.755000000
O     0.068000000    -5.877000000     3.854000000
H     0.531000000    -6.044000000     4.675000000
H     0.617000000    -5.241000000     3.396000000
O     1.937000000     3.753000000    -2.530000000
H     2.299000000     3.898000000    -3.405000000
H     1.853000000     2.802000000    -2.461000000
O    -3.732000000     2.103000000    -6.438000000
H    -4.256000000     1.325000000    -6.629000000
H    -3.493000000     2.010000000    -5.516000000
