158
-3025.15107
C     1.232000000     0.679000000    -0.475000000
H     2.192000000     1.073000000    -0.799000000
C     1.093000000     0.089000000     0.765000000
H     1.944000000     0.039000000     1.440000000
C    -0.089000000    -0.540000000     1.079000000
H    -0.203000000    -1.063000000     2.024000000
C    -1.182000000    -0.626000000     0.203000000
H    -2.102000000    -1.160000000     0.426000000
C    -0.988000000    -0.057000000    -1.068000000
H    -1.820000000    -0.091000000    -1.767000000
C     0.190000000     0.611000000    -1.377000000
C     0.373000000     1.368000000    -2.748000000
O    -0.439000000     1.082000000    -3.634000000
O     1.297000000     2.154000000    -3.012000000
O     0.325000000    -5.395000000    -2.045000000
H     0.310000000    -4.556000000    -1.583000000
H    -0.009000000    -6.025000000    -1.406000000
O     0.454000000     6.469000000    -6.078000000
H     0.161000000     5.558000000    -6.098000000
H     1.237000000     6.481000000    -6.628000000
O     4.248000000    -0.840000000    -4.186000000
H     4.729000000    -0.312000000    -3.549000000
H     3.576000000    -0.250000000    -4.528000000
O    -2.770000000    -2.810000000     2.524000000
H    -2.086000000    -3.447000000     2.313000000
H    -2.298000000    -2.071000000     2.907000000
O     1.112000000     0.877000000     5.873000000
H     0.587000000     0.082000000     5.960000000
H     1.525000000     0.987000000     6.730000000
O    -4.048000000     0.820000000     1.429000000
H    -3.155000000     0.935000000     1.754000000
H    -4.145000000    -0.127000000     1.325000000
O    -1.681000000    -0.772000000     4.193000000
H    -2.512000000    -0.416000000     4.506000000
H    -1.141000000    -0.848000000     4.980000000
O    -4.645000000    -4.628000000     3.753000000
H    -3.996000000    -3.966000000     3.516000000
H    -4.478000000    -4.808000000     4.678000000
O    -2.787000000     2.295000000    -3.067000000
H    -2.019000000     1.780000000    -3.315000000
H    -2.486000000     2.839000000    -2.340000000
O     3.477000000     5.140000000    -4.251000000
H     4.392000000     5.350000000    -4.066000000
H     3.039000000     5.990000000    -4.290000000
O    -5.397000000     3.049000000    -2.308000000
H    -5.904000000     2.269000000    -2.080000000
H    -4.643000000     2.712000000    -2.791000000
O     3.271000000    -2.943000000    -1.556000000
H     3.640000000    -2.701000000    -2.405000000
H     2.325000000    -2.849000000    -1.670000000
O     0.863000000     3.838000000    -5.237000000
H     0.711000000     3.222000000    -4.521000000
H     1.591000000     4.381000000    -4.935000000
O     4.497000000     2.450000000    -3.933000000
H     3.705000000     1.922000000    -3.831000000
H     4.183000000     3.291000000    -4.265000000
O    -0.290000000     2.062000000     3.878000000
H     0.210000000     1.610000000     4.558000000
H    -1.019000000     1.472000000     3.685000000
O     3.861000000     0.122000000     5.213000000
H     3.055000000     0.304000000     5.696000000
H     3.729000000     0.538000000     4.361000000
O     5.232000000    -2.158000000     4.700000000
H     5.577000000    -1.330000000     5.033000000
H     4.283000000    -2.082000000     4.803000000
O     0.174000000    -2.825000000    -1.166000000
H    -0.727000000    -2.790000000    -1.487000000
H     0.149000000    -2.360000000    -0.330000000
O    -4.767000000    -1.808000000     1.035000000
H    -5.610000000    -2.216000000     1.230000000
H    -4.133000000    -2.310000000     1.547000000
O     0.270000000     3.927000000    -7.888000000
H     0.352000000     3.874000000    -6.936000000
H     1.147000000     4.161000000    -8.192000000
O     2.790000000     3.249000000     1.121000000
H     2.943000000     3.319000000     0.179000000
H     2.531000000     4.131000000     1.388000000
O    -3.415000000     5.041000000    -5.040000000
H    -2.666000000     4.971000000    -4.448000000
H    -3.495000000     4.169000000    -5.428000000
O    -6.530000000    -3.252000000    -2.426000000
H    -6.581000000    -2.957000000    -3.335000000
H    -6.009000000    -2.581000000    -1.985000000
O    -0.851000000     2.325000000     1.298000000
H    -0.539000000     1.434000000     1.140000000
H    -0.631000000     2.496000000     2.214000000
O     4.078000000    -2.980000000     1.125000000
H     4.250000000    -3.017000000     0.184000000
H     4.262000000    -2.072000000     1.366000000
O     5.216000000     5.043000000    -0.675000000
H     4.563000000     4.573000000    -1.195000000
H     5.320000000     4.513000000     0.115000000
O     0.982000000     4.538000000     3.977000000
H     0.206000000     5.076000000     3.815000000
H     0.647000000     3.643000000     4.024000000
O    -1.076000000     6.142000000    -2.841000000
H    -1.387000000     5.534000000    -2.171000000
H    -0.168000000     6.322000000    -2.600000000
O     2.890000000     1.055000000    -5.963000000
H     2.448000000     0.338000000    -6.419000000
H     2.187000000     1.663000000    -5.736000000
O    -3.412000000    -2.391000000    -5.622000000
H    -2.580000000    -1.917000000    -5.638000000
H    -3.170000000    -3.304000000    -5.780000000
O    -6.389000000    -0.664000000    -1.255000000
H    -5.673000000    -0.683000000    -0.619000000
H    -7.176000000    -0.541000000    -0.725000000
O    -3.992000000     0.987000000     4.153000000
H    -4.240000000     1.127000000     3.239000000
H    -4.417000000     1.701000000     4.628000000
O     6.086000000     0.417000000    -2.755000000
H     5.740000000     1.286000000    -2.960000000
H     6.321000000     0.465000000    -1.829000000
O     1.611000000    -4.451000000     1.218000000
H     1.728000000    -4.684000000     2.138000000
H     2.201000000    -3.710000000     1.081000000
O    -3.540000000     1.895000000    -5.908000000
H    -3.111000000     1.740000000    -5.067000000
H    -4.449000000     2.090000000    -5.681000000
O    -0.767000000    -0.628000000    -7.454000000
H    -0.659000000    -0.830000000    -6.525000000
H    -1.618000000    -0.194000000    -7.507000000
O    -0.854000000    -4.532000000     1.705000000
H     0.099000000    -4.541000000     1.611000000
H    -1.184000000    -4.593000000     0.808000000
O     2.059000000    -4.630000000     3.896000000
H     2.984000000    -4.550000000     3.662000000
H     2.048000000    -4.572000000     4.851000000
O     4.952000000    -0.219000000     1.426000000
H     5.897000000    -0.065000000     1.427000000
H     4.611000000     0.382000000     2.089000000
O    -1.066000000    -1.134000000    -4.646000000
H    -0.661000000    -1.733000000    -4.019000000
H    -0.813000000    -0.263000000    -4.343000000
O    -1.460000000     4.045000000    -0.911000000
H    -2.057000000     4.664000000    -0.490000000
H    -1.036000000     3.589000000    -0.184000000
O    -0.558000000    -1.228000000     6.559000000
H    -0.955000000    -2.098000000     6.533000000
H    -1.044000000    -0.763000000     7.240000000
O     3.536000000     1.712000000     3.171000000
H     3.066000000     2.034000000     2.401000000
H     3.376000000     2.374000000     3.843000000
O     1.529000000     6.638000000    -1.150000000
H     1.570000000     5.698000000    -1.328000000
H     2.181000000     6.781000000    -0.465000000
O    -0.490000000    -6.239000000     4.112000000
H     0.297000000    -5.700000000     4.197000000
H    -0.959000000    -5.864000000     3.367000000
O    -2.325000000    -3.004000000    -2.179000000
H    -2.907000000    -3.761000000    -2.112000000
H    -2.451000000    -2.684000000    -3.072000000
O     2.793000000     4.124000000    -1.919000000
H     3.168000000     4.541000000    -2.694000000
H     2.281000000     3.393000000    -2.263000000
O    -2.932000000     0.736000000    -8.360000000
H    -3.859000000     0.503000000    -8.413000000
H    -2.852000000     1.213000000    -7.534000000
