158
-3038.60054
C     0.785000000     0.951000000    -0.791000000
H     1.483000000     1.540000000    -1.381000000
C     1.249000000     0.196000000     0.296000000
H     2.241000000     0.383000000     0.699000000
C     0.415000000    -0.693000000     0.924000000
H     0.817000000    -1.327000000     1.798000000
C    -0.908000000    -0.808000000     0.490000000
H    -1.586000000    -1.435000000     1.064000000
C    -1.404000000    -0.197000000    -0.637000000
H    -2.388000000    -0.465000000    -1.015000000
C    -0.530000000     0.698000000    -1.318000000
C    -0.951000000     1.594000000    -2.495000000
O    -2.185000000     1.459000000    -2.777000000
O    -0.229000000     2.495000000    -2.823000000
O     1.444000000    -4.262000000     0.109000000
H     1.483000000    -3.641000000    -0.618000000
H     0.599000000    -4.700000000     0.005000000
O    -5.147000000    -2.796000000    -1.299000000
H    -5.260000000    -2.029000000    -1.860000000
H    -5.670000000    -3.479000000    -1.718000000
O    -2.549000000     1.468000000     3.721000000
H    -3.436000000     1.497000000     3.362000000
H    -2.663000000     1.640000000     4.655000000
O     2.518000000    -4.231000000     5.331000000
H     3.074000000    -3.811000000     4.675000000
H     2.769000000    -5.154000000     5.305000000
O    -5.750000000     4.849000000    -1.574000000
H    -5.214000000     4.142000000    -1.931000000
H    -5.118000000     5.513000000    -1.298000000
O     1.066000000     3.853000000    -6.878000000
H     0.979000000     3.300000000    -6.101000000
H     0.314000000     3.620000000    -7.423000000
O    -5.740000000     0.477000000     2.919000000
H    -5.684000000    -0.084000000     3.693000000
H    -5.605000000    -0.119000000     2.181000000
O    -3.908000000    -2.754000000     3.639000000
H    -4.413000000    -2.455000000     2.882000000
H    -3.561000000    -3.605000000     3.374000000
O    -4.391000000     2.634000000    -2.270000000
H    -3.491000000     2.313000000    -2.322000000
H    -4.818000000     2.275000000    -3.048000000
O    -6.604000000     2.520000000    -0.052000000
H    -5.831000000     2.485000000    -0.615000000
H    -6.465000000     3.292000000     0.498000000
O    -3.953000000    -3.705000000    -4.601000000
H    -3.526000000    -3.041000000    -4.059000000
H    -3.658000000    -4.539000000    -4.236000000
O     1.012000000     4.859000000    -1.901000000
H     0.715000000     3.987000000    -2.159000000
H     1.830000000     4.986000000    -2.382000000
O     2.571000000    -0.680000000     4.831000000
H     2.774000000     0.117000000     5.320000000
H     3.285000000    -0.760000000     4.198000000
O     5.314000000    -3.594000000     3.717000000
H     4.826000000    -2.775000000     3.627000000
H     4.927000000    -4.177000000     3.064000000
O     1.565000000    -2.201000000    -1.800000000
H     2.364000000    -1.703000000    -1.973000000
H     1.073000000    -1.658000000    -1.184000000
O    -5.636000000    -2.200000000     1.608000000
H    -5.315000000    -2.416000000     0.732000000
H    -6.550000000    -2.484000000     1.605000000
O    -1.013000000     2.650000000    -7.593000000
H    -0.944000000     1.939000000    -6.955000000
H    -1.953000000     2.812000000    -7.669000000
O     5.178000000    -3.267000000    -0.268000000
H     5.013000000    -2.497000000     0.277000000
H     5.389000000    -2.909000000    -1.130000000
O    -0.676000000     2.165000000     1.771000000
H    -1.256000000     1.764000000     2.419000000
H    -0.107000000     1.451000000     1.486000000
O    -2.849000000    -1.014000000    -3.685000000
H    -2.221000000    -0.714000000    -4.342000000
H    -2.919000000    -0.285000000    -3.070000000
O     3.076000000    -4.650000000     2.442000000
H     3.094000000    -5.593000000     2.603000000
H     2.858000000    -4.568000000     1.514000000
O    -2.105000000     4.320000000    -3.922000000
H    -1.797000000     4.574000000    -4.792000000
H    -1.572000000     3.559000000    -3.691000000
O     4.634000000    -0.793000000     0.961000000
H     4.536000000    -0.437000000     1.844000000
H     5.102000000    -0.111000000     0.479000000
O     3.825000000     2.675000000     3.575000000
H     4.602000000     2.588000000     4.128000000
H     3.119000000     2.883000000     4.187000000
O    -2.933000000     5.979000000    -2.068000000
H    -2.165000000     6.369000000    -1.650000000
H    -2.581000000     5.261000000    -2.593000000
O     2.605000000     1.334000000     6.448000000
H     2.373000000     1.349000000     7.376000000
H     1.978000000     1.928000000     6.035000000
O     1.643000000     2.189000000    -4.553000000
H     1.548000000     1.239000000    -4.619000000
H     1.041000000     2.442000000    -3.853000000
O    -5.447000000    -0.568000000    -2.928000000
H    -4.707000000    -0.484000000    -3.529000000
H    -6.219000000    -0.462000000    -3.482000000
O     3.579000000    -0.480000000    -2.986000000
H     4.330000000    -1.004000000    -3.262000000
H     3.922000000     0.411000000    -2.913000000
O    -2.856000000    -4.793000000     2.103000000
H    -2.783000000    -5.521000000     1.485000000
H    -2.071000000    -4.862000000     2.646000000
O     4.374000000     4.517000000     1.402000000
H     5.182000000     4.006000000     1.362000000
H     3.782000000     3.987000000     1.936000000
O     6.627000000     0.791000000    -0.887000000
H     5.849000000     1.162000000    -1.303000000
H     6.920000000     1.470000000    -0.279000000
O    -0.381000000    -4.119000000     3.335000000
H    -0.001000000    -3.474000000     3.932000000
H     0.343000000    -4.371000000     2.762000000
O    -4.865000000     4.996000000    -4.689000000
H    -4.036000000     4.726000000    -4.294000000
H    -5.523000000     4.808000000    -4.019000000
O    -4.319000000     1.966000000    -6.079000000
H    -3.633000000     1.446000000    -5.661000000
H    -5.070000000     1.889000000    -5.491000000
O    -0.522000000     7.149000000    -1.542000000
H    -0.028000000     7.940000000    -1.757000000
H     0.147000000     6.480000000    -1.400000000
O     1.459000000    -0.392000000    -4.819000000
H     2.052000000    -0.596000000    -4.096000000
H     1.520000000    -1.150000000    -5.400000000
O    -1.599000000    -3.559000000     6.532000000
H    -2.059000000    -3.666000000     5.699000000
H    -0.957000000    -2.868000000     6.364000000
O     5.162000000    -0.677000000     3.925000000
H     5.406000000    -0.955000000     4.808000000
H     5.686000000     0.109000000     3.769000000
O    -1.464000000     0.585000000    -5.339000000
H    -0.564000000     0.271000000    -5.252000000
H    -1.630000000     1.062000000    -4.526000000
O    -3.514000000     3.572000000     1.973000000
H    -3.217000000     4.207000000     1.321000000
H    -2.931000000     2.821000000     1.859000000
O    -1.077000000    -5.751000000    -0.463000000
H    -1.187000000    -6.581000000    -0.926000000
H    -1.671000000    -5.147000000    -0.909000000
O     0.945000000     2.960000000     4.918000000
H     0.350000000     3.703000000     5.012000000
H     0.401000000     2.261000000     4.556000000
O    -0.700000000     4.563000000     0.417000000
H    -0.243000000     4.506000000    -0.422000000
H    -0.490000000     3.741000000     0.860000000
O    -1.789000000    -1.162000000     4.449000000
H    -1.811000000    -0.322000000     3.992000000
H    -2.562000000    -1.629000000     4.131000000
O    -2.399000000    -3.486000000    -1.686000000
H    -2.231000000    -2.703000000    -2.210000000
H    -3.210000000    -3.290000000    -1.216000000
O     0.823000000    -2.350000000     6.257000000
H     1.020000000    -1.549000000     5.770000000
H     1.547000000    -2.940000000     6.049000000
O     4.103000000     2.288000000    -1.576000000
H     4.567000000     3.028000000    -1.967000000
H     3.514000000     2.686000000    -0.935000000
