158
-3069.67690
C     0.159000000     0.820000000    -1.181000000
H     0.363000000     1.547000000    -1.963000000
C     0.941000000     0.873000000    -0.033000000
H     1.735000000     1.612000000     0.042000000
C     0.691000000     0.046000000     1.040000000
H     1.320000000     0.134000000     1.941000000
C    -0.369000000    -0.909000000     0.892000000
H    -0.563000000    -1.638000000     1.675000000
C    -1.080000000    -1.008000000    -0.281000000
H    -1.809000000    -1.803000000    -0.418000000
C    -0.812000000    -0.140000000    -1.342000000
C    -1.668000000    -0.118000000    -2.542000000
O    -2.277000000    -1.105000000    -2.905000000
O    -1.796000000     0.895000000    -3.184000000
O     1.258000000    -4.406000000     1.431000000
H     0.592000000    -4.118000000     0.807000000
H     1.560000000    -3.599000000     1.847000000
O    -4.081000000     2.538000000    -7.127000000
H    -4.729000000     1.863000000    -7.330000000
H    -3.837000000     2.370000000    -6.217000000
O    -4.293000000    -4.546000000     0.450000000
H    -4.644000000    -5.377000000     0.770000000
H    -4.996000000    -4.180000000    -0.087000000
O    -2.989000000    -3.009000000     6.028000000
H    -3.161000000    -3.190000000     5.104000000
H    -2.518000000    -2.176000000     6.026000000
O    -6.033000000    -0.857000000     0.259000000
H    -5.527000000    -1.413000000    -0.334000000
H    -5.586000000    -0.011000000     0.234000000
O    -3.738000000    -1.731000000    -4.868000000
H    -3.194000000    -1.462000000    -4.129000000
H    -3.159000000    -1.668000000    -5.628000000
O    -6.303000000    -0.299000000    -5.096000000
H    -6.033000000    -0.049000000    -5.980000000
H    -5.646000000    -0.936000000    -4.816000000
O    -3.350000000     0.773000000     1.009000000
H    -3.518000000     1.314000000     0.238000000
H    -2.492000000     0.381000000     0.844000000
O     1.347000000    -3.878000000    -1.617000000
H     0.527000000    -3.821000000    -2.108000000
H     1.430000000    -4.805000000    -1.394000000
O    -1.292000000     0.967000000    -5.771000000
H    -1.428000000     0.896000000    -4.826000000
H    -2.159000000     1.169000000    -6.123000000
O     1.886000000    -1.929000000     2.932000000
H     2.617000000    -2.305000000     3.422000000
H     2.230000000    -1.802000000     2.048000000
O     1.877000000     3.579000000    -2.339000000
H     2.339000000     2.782000000    -2.080000000
H     1.463000000     3.356000000    -3.173000000
O     4.234000000    -2.608000000     4.504000000
H     4.297000000    -1.759000000     4.941000000
H     4.682000000    -3.215000000     5.093000000
O     2.851000000    -2.008000000     0.198000000
H     2.420000000    -1.251000000    -0.199000000
H     2.593000000    -2.747000000    -0.353000000
O    -3.600000000    -3.209000000     3.216000000
H    -4.146000000    -2.444000000     3.037000000
H    -3.785000000    -3.810000000     2.495000000
O    -0.248000000    -3.957000000    -5.092000000
H    -0.234000000    -4.914000000    -5.105000000
H     0.631000000    -3.700000000    -5.371000000
O    -2.113000000    -5.692000000     4.231000000
H    -2.187000000    -6.044000000     5.118000000
H    -1.648000000    -4.863000000     4.340000000
O     3.123000000     3.618000000     5.187000000
H     3.503000000     3.196000000     4.417000000
H     2.295000000     3.983000000     4.875000000
O    -0.272000000     2.387000000     2.530000000
H     0.201000000     1.675000000     2.100000000
H     0.413000000     2.921000000     2.932000000
O    -1.384000000    -3.604000000    -2.628000000
H    -1.599000000    -2.674000000    -2.554000000
H    -1.057000000    -3.703000000    -3.522000000
O    -2.196000000     4.398000000     2.233000000
H    -2.069000000     4.271000000     1.293000000
H    -1.799000000     3.626000000     2.635000000
O    -1.784000000     3.490000000    -2.708000000
H    -1.697000000     4.117000000    -3.425000000
H    -1.356000000     2.697000000    -3.029000000
O    -1.971000000     4.969000000    -0.446000000
H    -2.407000000     5.642000000    -0.968000000
H    -1.789000000     4.264000000    -1.067000000
O    -1.414000000    -1.840000000    -6.642000000
H    -1.071000000    -0.964000000    -6.469000000
H    -0.821000000    -2.426000000    -6.172000000
O     5.205000000    -0.942000000     2.546000000
H     4.531000000    -1.459000000     2.987000000
H     5.978000000    -1.031000000     3.103000000
O     6.007000000     1.922000000     1.800000000
H     6.764000000     2.443000000     2.068000000
H     6.177000000     1.051000000     2.159000000
O     0.208000000     6.019000000     0.929000000
H    -0.032000000     6.870000000     0.564000000
H    -0.388000000     5.400000000     0.507000000
O    -4.565000000    -1.937000000    -1.771000000
H    -3.908000000    -1.437000000    -2.256000000
H    -4.348000000    -2.852000000    -1.948000000
O     3.800000000     1.734000000    -2.159000000
H     4.472000000     2.386000000    -2.360000000
H     4.212000000     1.156000000    -1.517000000
O    -5.093000000    -3.272000000    -6.789000000
H    -4.951000000    -4.172000000    -6.496000000
H    -4.523000000    -2.745000000    -6.230000000
O    -0.473000000    -6.913000000     0.693000000
H     0.011000000    -6.618000000     1.465000000
H    -0.925000000    -6.129000000     0.380000000
O    -3.739000000     1.936000000    -1.292000000
H    -2.966000000     2.074000000    -1.839000000
H    -4.432000000     2.432000000    -1.727000000
O    -3.980000000     1.502000000    -4.627000000
H    -4.611000000     0.849000000    -4.325000000
H    -3.267000000     1.459000000    -3.989000000
O     0.588000000    -6.173000000     3.436000000
H    -0.350000000    -6.054000000     3.585000000
H     0.857000000    -5.388000000     2.959000000
O     1.362000000     6.111000000    -1.651000000
H     1.368000000     5.166000000    -1.804000000
H     1.608000000     6.207000000    -0.731000000
O    -5.633000000    -1.501000000     2.914000000
H    -6.537000000    -1.802000000     3.004000000
H    -5.568000000    -1.205000000     2.006000000
O     2.560000000     0.524000000    -4.557000000
H     3.059000000    -0.185000000    -4.964000000
H     3.169000000     0.917000000    -3.932000000
O     3.387000000     2.193000000     2.602000000
H     3.333000000     2.908000000     1.967000000
H     4.219000000     1.762000000     2.407000000
O     0.761000000     3.893000000    -4.775000000
H     0.006000000     3.411000000    -5.113000000
H     0.399000000     4.726000000    -4.472000000
O    -2.185000000     1.977000000     4.930000000
H    -1.475000000     2.014000000     4.290000000
H    -2.717000000     1.230000000     4.655000000
O     1.661000000     0.467000000    -7.196000000
H     1.064000000     0.465000000    -6.447000000
H     2.441000000     0.921000000    -6.878000000
O    -0.232000000    -3.156000000     4.597000000
H     0.426000000    -2.572000000     4.222000000
H    -0.957000000    -2.579000000     4.837000000
O     3.858000000    -0.562000000     6.447000000
H     4.221000000     0.284000000     6.708000000
H     2.935000000    -0.514000000     6.695000000
O     0.530000000    -0.149000000     4.566000000
H     1.302000000    -0.247000000     5.124000000
H     0.829000000    -0.413000000     3.696000000
O    -1.488000000    -0.856000000     6.096000000
H    -1.651000000    -0.227000000     6.799000000
H    -0.714000000    -0.518000000     5.647000000
O    -1.553000000    -4.366000000     0.139000000
H    -2.473000000    -4.553000000     0.327000000
H    -1.502000000    -4.356000000    -0.817000000
O     1.860000000     4.756000000     2.420000000
H     2.357000000     5.559000000     2.579000000
H     1.136000000     5.030000000     1.856000000
O     4.812000000    -0.120000000    -0.433000000
H     4.183000000    -0.718000000    -0.029000000
H     5.438000000     0.076000000     0.264000000
