158
-3058.97450
C    -1.237000000    -0.733000000    -0.101000000
H    -2.242000000    -1.139000000    -0.017000000
C    -1.050000000     0.514000000     0.431000000
H    -1.930000000     1.116000000     0.645000000
C     0.149000000     1.113000000     0.468000000
H     0.283000000     2.102000000     0.767000000
C     1.206000000     0.409000000    -0.062000000
H     2.152000000     0.943000000    -0.022000000
C     1.038000000    -0.836000000    -0.640000000
H     1.932000000    -1.352000000    -0.980000000
C    -0.176000000    -1.430000000    -0.681000000
C    -0.408000000    -2.852000000    -1.156000000
O     0.588000000    -3.475000000    -1.529000000
O    -1.530000000    -3.316000000    -1.270000000
O     1.672000000     3.909000000    -4.214000000
H     0.750000000     4.131000000    -4.344000000
H     1.655000000     3.123000000    -3.668000000
O     3.647000000    -1.587000000    -5.319000000
H     2.718000000    -1.770000000    -5.182000000
H     3.852000000    -0.901000000    -4.684000000
O    -1.466000000     6.148000000     2.553000000
H    -1.024000000     6.912000000     2.922000000
H    -1.882000000     6.474000000     1.755000000
O    -3.930000000    -2.970000000    -5.491000000
H    -3.412000000    -3.681000000    -5.113000000
H    -4.734000000    -2.958000000    -4.971000000
O     2.939000000     5.052000000     3.616000000
H     3.594000000     4.380000000     3.805000000
H     3.363000000     5.626000000     2.977000000
O    -2.669000000    -0.743000000    -3.871000000
H    -3.281000000    -1.008000000    -4.557000000
H    -2.921000000    -1.267000000    -3.110000000
O     3.236000000     5.031000000    -1.187000000
H     2.282000000     5.030000000    -1.265000000
H     3.525000000     4.341000000    -1.785000000
O    -2.167000000     3.505000000    -0.172000000
H    -1.876000000     3.065000000     0.627000000
H    -2.673000000     2.841000000    -0.640000000
O     5.580000000     3.258000000     0.607000000
H     5.883000000     3.003000000     1.478000000
H     5.475000000     4.208000000     0.658000000
O    -0.456000000     3.466000000     3.312000000
H    -0.982000000     4.265000000     3.283000000
H     0.293000000     3.650000000     2.745000000
O    -3.666000000    -4.956000000     2.894000000
H    -3.235000000    -4.103000000     2.933000000
H    -2.950000000    -5.589000000     2.949000000
O     4.353000000    -0.675000000    -0.632000000
H     4.919000000     0.096000000    -0.596000000
H     4.635000000    -1.214000000     0.107000000
O    -0.992000000    -5.770000000     2.788000000
H    -0.794000000    -6.285000000     2.006000000
H    -0.212000000    -5.234000000     2.926000000
O    -1.430000000    -3.836000000    -4.141000000
H    -1.387000000    -3.708000000    -3.193000000
H    -1.185000000    -4.753000000    -4.270000000
O    -5.878000000    -2.790000000    -3.606000000
H    -5.325000000    -2.587000000    -2.852000000
H    -6.458000000    -3.485000000    -3.297000000
O     1.103000000    -6.112000000    -1.667000000
H     0.931000000    -5.171000000    -1.625000000
H     2.053000000    -6.178000000    -1.766000000
O     1.114000000     3.195000000     5.620000000
H     1.979000000     3.567000000     5.450000000
H     0.575000000     3.497000000     4.889000000
O    -2.980000000     5.965000000    -0.113000000
H    -2.994000000     5.013000000    -0.211000000
H    -3.540000000     6.287000000    -0.820000000
O     3.422000000    -5.004000000    -5.243000000
H     4.180000000    -5.472000000    -4.891000000
H     3.469000000    -4.136000000    -4.842000000
O    -6.599000000     1.531000000     1.867000000
H    -5.854000000     1.943000000     2.305000000
H    -6.415000000     1.635000000     0.933000000
O     0.269000000     3.874000000    -1.494000000
H    -0.510000000     3.626000000    -0.995000000
H    -0.053000000     4.492000000    -2.150000000
O     2.852000000     0.611000000     3.834000000
H     2.884000000     1.361000000     3.240000000
H     2.061000000     0.753000000     4.355000000
O    -0.349000000     0.409000000     4.234000000
H    -0.216000000    -0.326000000     3.635000000
H    -0.133000000     1.183000000     3.715000000
O    -0.185000000     7.075000000    -0.992000000
H    -0.001000000     7.894000000    -0.533000000
H    -0.901000000     6.678000000    -0.495000000
O    -1.027000000    -7.269000000    -2.386000000
H    -0.878000000    -7.000000000    -3.292000000
H    -0.189000000    -7.114000000    -1.949000000
O    -2.529000000    -0.032000000     5.794000000
H    -1.808000000     0.272000000     5.243000000
H    -3.194000000     0.653000000     5.716000000
O    -2.815000000    -5.681000000    -0.817000000
H    -2.378000000    -4.832000000    -0.882000000
H    -2.252000000    -6.278000000    -1.311000000
O     3.244000000     0.627000000    -3.385000000
H     2.344000000     0.857000000    -3.155000000
H     3.568000000     0.140000000    -2.627000000
O    -5.335000000    -5.046000000    -1.099000000
H    -5.677000000    -5.346000000    -1.941000000
H    -4.484000000    -5.478000000    -1.019000000
O     1.252000000    -8.005000000     0.136000000
H     1.687000000    -7.764000000     0.954000000
H     1.278000000    -7.207000000    -0.392000000
O     5.502000000     1.721000000    -1.416000000
H     4.936000000     2.263000000    -1.966000000
H     5.636000000     2.242000000    -0.625000000
O    -2.109000000     2.033000000    -4.095000000
H    -2.204000000     1.085000000    -4.192000000
H    -2.688000000     2.257000000    -3.366000000
O    -3.928000000     1.925000000    -1.359000000
H    -4.462000000     1.183000000    -1.071000000
H    -4.539000000     2.490000000    -1.832000000
O     3.351000000    -2.916000000    -2.276000000
H     3.547000000    -2.098000000    -1.820000000
H     2.402000000    -3.013000000    -2.198000000
O    -5.905000000    -0.028000000    -0.602000000
H    -6.571000000    -0.590000000    -0.997000000
H    -5.351000000    -0.627000000    -0.103000000
O    -3.942000000    -2.130000000    -1.796000000
H    -3.120000000    -2.620000000    -1.779000000
H    -4.180000000    -2.030000000    -0.874000000
O     3.145000000     2.537000000     1.911000000
H     2.642000000     3.335000000     1.748000000
H     3.828000000     2.543000000     1.240000000
O     0.736000000     1.368000000    -3.059000000
H    -0.057000000     0.836000000    -3.125000000
H     0.539000000     2.008000000    -2.375000000
O     5.292000000    -2.093000000     1.613000000
H     6.115000000    -1.620000000     1.734000000
H     4.846000000    -2.017000000     2.457000000
O     0.899000000     4.555000000     1.211000000
H     0.932000000     4.658000000     0.260000000
H     0.677000000     5.427000000     1.538000000
O    -2.801000000    -2.227000000     3.254000000
H    -1.867000000    -2.242000000     3.043000000
H    -2.982000000    -1.313000000     3.474000000
O     1.340000000    -4.128000000     3.093000000
H     2.053000000    -4.271000000     3.715000000
H     1.774000000    -4.045000000     2.244000000
O    -0.098000000    -1.951000000     2.728000000
H     0.271000000    -2.803000000     2.960000000
H    -0.051000000    -1.921000000     1.773000000
O     2.567000000    -4.182000000     0.671000000
H     3.407000000    -3.757000000     0.846000000
H     2.340000000    -3.907000000    -0.217000000
O     5.759000000     1.523000000     2.888000000
H     6.407000000     0.871000000     2.621000000
H     4.997000000     1.009000000     3.154000000
O    -4.689000000    -1.941000000     0.826000000
H    -5.455000000    -2.407000000     1.164000000
H    -4.012000000    -2.082000000     1.488000000
O     1.000000000    -2.402000000    -4.934000000
H     0.680000000    -2.255000000    -4.044000000
H     0.296000000    -2.888000000    -5.364000000
O     5.932000000    -3.827000000    -3.305000000
H     5.158000000    -3.423000000    -2.913000000
H     6.204000000    -4.489000000    -2.669000000
