158
-3012.32646
C    -1.120000000    -0.431000000    -0.825000000
H    -2.064000000    -0.698000000    -1.293000000
C    -1.193000000     0.457000000     0.246000000
H    -2.135000000     0.824000000     0.647000000
C    -0.054000000     0.841000000     0.915000000
H    -0.197000000     1.505000000     1.729000000
C     1.121000000     0.189000000     0.648000000
H     1.961000000     0.407000000     1.303000000
C     1.282000000    -0.603000000    -0.498000000
H     2.254000000    -0.940000000    -0.851000000
C     0.165000000    -0.825000000    -1.328000000
C     0.164000000    -1.698000000    -2.585000000
O     1.196000000    -2.227000000    -2.962000000
O    -0.822000000    -1.977000000    -3.216000000
O     0.957000000     2.201000000    -5.026000000
H     0.147000000     2.669000000    -5.228000000
H     0.847000000     1.912000000    -4.120000000
O    -0.325000000    -3.825000000     4.486000000
H    -0.375000000    -4.780000000     4.524000000
H     0.121000000    -3.642000000     3.659000000
O    -3.616000000     6.257000000     3.879000000
H    -3.759000000     5.581000000     4.541000000
H    -2.899000000     5.920000000     3.343000000
O    -3.384000000     3.902000000    -0.123000000
H    -3.754000000     4.773000000     0.020000000
H    -2.919000000     3.973000000    -0.957000000
O     2.449000000     4.404000000     2.668000000
H     3.208000000     3.843000000     2.826000000
H     2.611000000     4.788000000     1.806000000
O    -0.243000000    -5.189000000    -6.899000000
H     0.677000000    -4.976000000    -6.739000000
H    -0.227000000    -6.087000000    -7.230000000
O    -3.735000000    -1.380000000    -4.694000000
H    -2.829000000    -1.610000000    -4.900000000
H    -4.105000000    -2.178000000    -4.317000000
O    -2.865000000     3.532000000    -2.650000000
H    -2.576000000     2.639000000    -2.460000000
H    -3.630000000     3.421000000    -3.215000000
O     5.138000000     0.803000000     0.788000000
H     5.414000000     0.239000000     1.511000000
H     5.841000000     1.448000000     0.706000000
O    -1.630000000     4.964000000     2.501000000
H    -0.732000000     5.263000000     2.362000000
H    -1.878000000     4.554000000     1.672000000
O     4.837000000    -5.884000000    -1.459000000
H     4.438000000    -6.420000000    -0.773000000
H     4.192000000    -5.199000000    -1.633000000
O     5.003000000    -2.528000000     0.767000000
H     5.584000000    -1.833000000     1.076000000
H     4.666000000    -2.932000000     1.566000000
O    -0.439000000    -2.378000000    -5.882000000
H    -0.526000000    -2.240000000    -4.939000000
H     0.505000000    -2.439000000    -6.028000000
O     4.523000000    -0.910000000     5.004000000
H     5.063000000    -0.431000000     5.633000000
H     4.977000000    -0.803000000     4.168000000
O     1.288000000     1.335000000     5.685000000
H     1.377000000     0.515000000     5.199000000
H     0.518000000     1.757000000     5.304000000
O    -0.553000000    -4.802000000    -2.687000000
H    -0.284000000    -3.888000000    -2.777000000
H     0.236000000    -5.305000000    -2.892000000
O    -0.450000000     2.720000000     3.921000000
H     0.372000000     3.208000000     3.976000000
H    -0.990000000     3.226000000     3.315000000
O    -4.139000000     3.779000000     5.288000000
H    -3.462000000     3.114000000     5.416000000
H    -4.857000000     3.311000000     4.861000000
O     2.629000000    -6.308000000    -4.926000000
H     2.179000000    -6.152000000    -4.097000000
H     2.553000000    -5.480000000    -5.400000000
O     1.562000000    -1.124000000     4.387000000
H     2.497000000    -0.988000000     4.233000000
H     1.236000000    -1.492000000     3.566000000
O    -2.400000000     1.578000000     5.355000000
H    -1.738000000     2.100000000     4.903000000
H    -1.931000000     1.176000000     6.087000000
O    -2.584000000    -4.560000000    -5.063000000
H    -1.706000000    -4.391000000    -5.405000000
H    -2.589000000    -4.146000000    -4.200000000
O    -3.255000000    -0.423000000     3.640000000
H    -2.950000000     0.287000000     4.205000000
H    -4.210000000    -0.389000000     3.708000000
O    -1.766000000    -5.300000000    -0.336000000
H    -1.030000000    -5.338000000     0.274000000
H    -1.377000000    -5.017000000    -1.164000000
O     3.462000000     0.622000000    -4.194000000
H     2.651000000     1.098000000    -4.374000000
H     3.713000000     0.900000000    -3.313000000
O    -6.209000000    -0.700000000    -3.003000000
H    -5.842000000    -0.275000000    -3.778000000
H    -6.231000000    -1.630000000    -3.227000000
O     4.834000000     1.146000000    -2.026000000
H     5.457000000     1.803000000    -2.336000000
H     4.749000000     1.319000000    -1.089000000
O    -1.455000000     0.951000000    -3.567000000
H    -1.408000000     0.039000000    -3.855000000
H    -2.059000000     1.366000000    -4.183000000
O    -3.436000000     2.415000000     2.486000000
H    -2.862000000     1.653000000     2.404000000
H    -3.533000000     2.739000000     1.590000000
O     2.614000000    -2.009000000    -5.026000000
H     3.185000000    -1.245000000    -4.944000000
H     2.151000000    -2.053000000    -4.189000000
O    -6.025000000    -0.269000000    -0.288000000
H    -6.014000000    -0.515000000    -1.213000000
H    -5.463000000    -0.916000000     0.138000000
O    -3.637000000    -3.072000000    -2.455000000
H    -2.716000000    -2.816000000    -2.421000000
H    -3.964000000    -2.911000000    -1.570000000
O     4.473000000     2.582000000     3.310000000
H     4.873000000     2.084000000     2.597000000
H     5.195000000     3.088000000     3.683000000
O     0.995000000    -6.980000000    -2.817000000
H     0.551000000    -7.722000000    -3.229000000
H     1.340000000    -7.332000000    -1.997000000
O    -5.800000000     2.494000000     3.738000000
H    -5.950000000     1.565000000     3.916000000
H    -4.956000000     2.517000000     3.285000000
O    -2.880000000    -3.195000000     5.335000000
H    -2.032000000    -3.486000000     4.999000000
H    -3.057000000    -2.381000000     4.863000000
O     0.567000000     2.404000000    -1.798000000
H     0.642000000     2.118000000    -0.888000000
H    -0.146000000     1.876000000    -2.157000000
O     3.154000000     3.318000000     5.877000000
H     3.580000000     2.876000000     5.142000000
H     2.463000000     2.714000000     6.150000000
O     0.546000000     6.071000000     1.172000000
H     1.336000000     5.938000000     0.648000000
H     0.869000000     6.401000000     2.011000000
O    -3.497000000     0.966000000    -6.104000000
H    -3.378000000     0.800000000    -7.039000000
H    -3.674000000     0.104000000    -5.728000000
O    -2.362000000    -2.514000000     2.304000000
H    -1.460000000    -2.341000000     2.034000000
H    -2.646000000    -1.700000000     2.721000000
O     2.431000000    -4.204000000     0.908000000
H     3.098000000    -4.331000000     1.583000000
H     2.926000000    -4.131000000     0.092000000
O     0.625000000    -2.640000000     1.983000000
H     1.319000000    -3.156000000     1.572000000
H     0.398000000    -1.980000000     1.329000000
O     3.369000000    -3.516000000    -1.597000000
H     3.869000000    -2.774000000    -1.257000000
H     2.718000000    -3.121000000    -2.176000000
O     6.050000000    -0.586000000     2.938000000
H     6.852000000    -0.159000000     2.638000000
H     6.329000000    -1.462000000     3.205000000
O    -4.471000000    -2.815000000     0.245000000
H    -4.701000000    -3.734000000     0.112000000
H    -3.760000000    -2.836000000     0.886000000
O    -1.108000000    -0.989000000    -7.966000000
H    -0.990000000    -1.404000000    -7.112000000
H    -0.501000000    -1.452000000    -8.544000000
O     2.207000000    -4.105000000    -6.626000000
H     2.508000000    -3.260000000    -6.294000000
H     2.713000000    -4.241000000    -7.427000000
