158
-2991.24345
C    -1.359000000     0.677000000     0.308000000
H    -2.270000000     1.206000000     0.573000000
C    -0.122000000     0.947000000     1.014000000
H    -0.032000000     1.687000000     1.805000000
C     0.981000000     0.213000000     0.671000000
H     1.938000000     0.448000000     1.245000000
C     0.944000000    -0.721000000    -0.365000000
H     1.877000000    -1.151000000    -0.719000000
C    -0.166000000    -0.960000000    -1.112000000
H    -0.202000000    -1.617000000    -1.977000000
C    -1.366000000    -0.284000000    -0.744000000
C    -2.580000000    -0.480000000    -1.608000000
O    -2.472000000    -1.115000000    -2.616000000
O    -3.593000000     0.123000000    -1.330000000
O     6.752000000    -2.787000000     0.599000000
H     6.912000000    -2.030000000     1.162000000
H     7.595000000    -3.238000000     0.559000000
O    -0.923000000     3.062000000    -2.808000000
H    -0.645000000     3.861000000    -3.255000000
H    -1.866000000     3.015000000    -2.967000000
O     5.484000000     3.408000000    -0.467000000
H     5.446000000     3.072000000    -1.362000000
H     4.572000000     3.420000000    -0.176000000
O    -0.416000000    -3.284000000     3.135000000
H    -0.083000000    -4.119000000     3.465000000
H    -1.004000000    -3.527000000     2.420000000
O     2.979000000     0.476000000    -3.131000000
H     2.303000000     0.970000000    -2.666000000
H     3.633000000     0.277000000    -2.462000000
O    -5.580000000     0.042000000    -3.988000000
H    -5.440000000    -0.190000000    -3.070000000
H    -6.197000000     0.774000000    -3.959000000
O    -4.685000000     3.312000000     1.940000000
H    -5.337000000     3.994000000     2.100000000
H    -4.244000000     3.587000000     1.136000000
O    -3.546000000    -1.555000000    -5.930000000
H    -3.702000000    -2.252000000    -5.293000000
H    -3.684000000    -0.746000000    -5.437000000
O     4.559000000    -3.502000000    -0.725000000
H     5.442000000    -3.387000000    -0.376000000
H     3.982000000    -3.209000000    -0.019000000
O     4.894000000     5.570000000     1.992000000
H     5.339000000     5.139000000     2.721000000
H     4.961000000     4.948000000     1.268000000
O    -0.872000000     6.493000000     1.973000000
H    -0.813000000     5.538000000     1.969000000
H    -0.065000000     6.785000000     1.549000000
O     2.867000000    -3.373000000     1.642000000
H     3.435000000    -3.921000000     2.185000000
H     2.106000000    -3.197000000     2.194000000
O     0.731000000    -4.323000000    -3.099000000
H     0.649000000    -4.329000000    -4.053000000
H     1.370000000    -3.633000000    -2.919000000
O    -9.049000000     1.192000000    -2.582000000
H    -8.273000000     1.225000000    -2.022000000
H    -8.711000000     1.329000000    -3.467000000
O    -6.285000000     0.499000000    -1.174000000
H    -6.413000000     0.643000000    -0.236000000
H    -5.336000000     0.432000000    -1.279000000
O    -1.594000000     1.511000000     5.207000000
H    -1.305000000     0.767000000     4.678000000
H    -1.450000000     2.273000000     4.647000000
O    -0.748000000     4.026000000     4.042000000
H    -1.432000000     4.636000000     4.318000000
H     0.072000000     4.484000000     4.230000000
O    -3.801000000    -3.134000000    -3.627000000
H    -3.204000000    -2.445000000    -3.336000000
H    -4.497000000    -3.140000000    -2.971000000
O    -1.848000000    -4.933000000    -2.754000000
H    -2.457000000    -4.267000000    -3.074000000
H    -0.999000000    -4.674000000    -3.114000000
O     3.389000000    -2.629000000    -3.164000000
H     3.479000000    -1.676000000    -3.161000000
H     3.711000000    -2.902000000    -2.305000000
O     5.176000000    -0.713000000    -1.666000000
H     5.563000000    -1.560000000    -1.888000000
H     5.771000000    -0.341000000    -1.015000000
O     1.705000000    -0.615000000     5.531000000
H     1.112000000    -0.425000000     4.804000000
H     2.528000000    -0.863000000     5.110000000
O    -3.644000000     4.511000000    -0.648000000
H    -2.880000000     4.054000000    -0.295000000
H    -3.894000000     4.000000000    -1.417000000
O    -5.997000000    -3.623000000    -2.109000000
H    -6.002000000    -4.572000000    -1.985000000
H    -6.914000000    -3.398000000    -2.271000000
O     1.241000000     2.077000000    -1.455000000
H     0.557000000     2.377000000    -2.052000000
H     0.766000000     1.666000000    -0.733000000
O     2.234000000     2.562000000     6.767000000
H     1.534000000     2.146000000     6.264000000
H     2.867000000     1.861000000     6.922000000
O     6.768000000    -0.444000000     5.400000000
H     6.222000000    -1.198000000     5.620000000
H     6.453000000    -0.163000000     4.541000000
O     2.931000000     3.665000000     0.372000000
H     2.499000000     4.486000000     0.608000000
H     2.305000000     3.221000000    -0.201000000
O    -6.651000000    -1.713000000    -5.712000000
H    -6.142000000    -1.019000000    -5.292000000
H    -7.542000000    -1.367000000    -5.753000000
O    -3.774000000     2.590000000    -2.739000000
H    -3.815000000     1.699000000    -2.390000000
H    -4.576000000     2.682000000    -3.254000000
O    -4.433000000     4.153000000     4.689000000
H    -3.769000000     4.842000000     4.668000000
H    -4.386000000     3.748000000     3.823000000
O     5.428000000     2.437000000     5.303000000
H     5.078000000     1.581000000     5.055000000
H     5.793000000     2.792000000     4.493000000
O    -1.828000000     0.825000000    -4.257000000
H    -1.112000000     1.234000000    -3.771000000
H    -2.090000000     0.080000000    -3.715000000
O    -5.804000000     1.017000000     1.567000000
H    -5.820000000     0.522000000     2.386000000
H    -5.245000000     1.771000000     1.753000000
O     5.860000000     0.531000000     2.917000000
H     5.324000000     0.951000000     2.245000000
H     6.595000000     0.152000000     2.435000000
O    -4.756000000    -2.333000000     0.156000000
H    -4.437000000    -1.564000000    -0.317000000
H    -5.271000000    -2.815000000    -0.491000000
O     1.700000000     5.732000000     4.385000000
H     1.808000000     5.788000000     3.436000000
H     1.318000000     6.574000000     4.633000000
O    -7.668000000    -1.326000000     0.772000000
H    -7.146000000    -0.938000000     0.070000000
H    -7.079000000    -1.346000000     1.526000000
O    -1.110000000     3.792000000    -0.094000000
H    -0.705000000     2.955000000    -0.324000000
H    -0.913000000     4.365000000    -0.835000000
O    -3.223000000    -2.606000000     2.483000000
H    -3.102000000    -1.806000000     2.995000000
H    -3.842000000    -2.359000000     1.796000000
O     6.051000000     0.356000000    -4.261000000
H     5.648000000     0.008000000    -3.465000000
H     5.566000000    -0.058000000    -4.975000000
O    -0.524000000    -0.615000000     3.502000000
H    -0.566000000    -1.570000000     3.438000000
H    -0.666000000    -0.308000000     2.607000000
O     2.495000000    -6.497000000    -3.043000000
H     1.852000000    -5.804000000    -3.190000000
H     3.342000000    -6.056000000    -3.110000000
O    -0.676000000    -5.473000000    -0.212000000
H    -1.462000000    -5.182000000    -0.674000000
H    -0.026000000    -5.601000000    -0.903000000
O     3.748000000    -0.852000000     3.917000000
H     4.519000000    -0.414000000     3.557000000
H     4.103000000    -1.574000000     4.435000000
O     6.820000000     0.765000000    -0.314000000
H     7.774000000     0.837000000    -0.318000000
H     6.512000000     1.670000000    -0.285000000
O    -3.575000000     2.357000000    -5.875000000
H    -2.794000000     1.844000000    -5.667000000
H    -3.926000000     2.615000000    -5.022000000
O    -1.121000000    -2.531000000    -7.122000000
H    -0.955000000    -1.850000000    -7.774000000
H    -1.760000000    -2.140000000    -6.526000000
