158
-3043.50242
C    -1.358000000     0.126000000    -0.446000000
H    -2.364000000     0.424000000    -0.730000000
C    -0.943000000     0.432000000     0.848000000
H    -1.684000000     0.949000000     1.451000000
C     0.432000000     0.187000000     1.191000000
H     0.844000000     0.371000000     2.135000000
C     1.241000000    -0.400000000     0.211000000
H     2.267000000    -0.599000000     0.512000000
C     0.702000000    -0.800000000    -1.035000000
H     1.341000000    -1.275000000    -1.775000000
C    -0.539000000    -0.452000000    -1.435000000
C    -1.069000000    -0.782000000    -2.849000000
O    -0.244000000    -0.848000000    -3.758000000
O    -2.251000000    -0.488000000    -3.058000000
O     6.889000000    -1.513000000    -0.311000000
H     6.016000000    -1.349000000    -0.666000000
H     7.014000000    -2.457000000    -0.410000000
O    -0.797000000     3.340000000    -3.212000000
H    -0.083000000     3.911000000    -3.495000000
H    -1.099000000     2.917000000    -4.016000000
O    -3.536000000     3.222000000    -4.587000000
H    -3.934000000     2.867000000    -3.792000000
H    -2.790000000     2.646000000    -4.758000000
O     4.763000000    -5.227000000     1.341000000
H     4.244000000    -4.549000000     0.909000000
H     4.252000000    -5.466000000     2.114000000
O     2.625000000    -3.223000000     1.010000000
H     3.161000000    -2.534000000     1.403000000
H     1.824000000    -3.231000000     1.534000000
O     4.135000000    -1.616000000    -5.467000000
H     4.309000000    -0.805000000    -4.988000000
H     3.255000000    -1.872000000    -5.193000000
O    -3.782000000    -0.328000000    -5.471000000
H    -3.478000000    -0.109000000    -4.590000000
H    -3.669000000     0.481000000    -5.970000000
O    -1.902000000     3.582000000     2.144000000
H    -2.024000000     3.901000000     1.250000000
H    -1.232000000     4.156000000     2.515000000
O    -0.524000000    -3.364000000     5.040000000
H    -0.895000000    -2.493000000     4.898000000
H     0.225000000    -3.213000000     5.617000000
O     5.185000000     3.993000000     1.206000000
H     6.069000000     3.721000000     1.450000000
H     4.951000000     3.419000000     0.476000000
O     0.516000000     4.642000000     0.616000000
H     1.312000000     4.224000000     0.289000000
H    -0.169000000     4.361000000     0.009000000
O    -1.532000000    -4.766000000    -0.441000000
H    -1.051000000    -4.628000000    -1.257000000
H    -1.970000000    -3.931000000    -0.277000000
O     3.907000000    -2.952000000    -1.449000000
H     3.850000000    -2.007000000    -1.594000000
H     3.428000000    -3.099000000    -0.634000000
O     2.388000000    -4.978000000    -3.424000000
H     2.813000000    -5.513000000    -4.094000000
H     2.389000000    -4.092000000    -3.788000000
O    -4.313000000     1.047000000    -2.500000000
H    -4.344000000     1.510000000    -1.662000000
H    -3.518000000     0.517000000    -2.451000000
O    -6.189000000    -0.642000000    -3.352000000
H    -5.846000000     0.053000000    -2.790000000
H    -5.607000000    -0.646000000    -4.111000000
O    -1.892000000    -0.883000000     5.361000000
H    -2.768000000    -0.873000000     5.745000000
H    -1.730000000     0.026000000     5.109000000
O    -1.668000000     1.687000000     4.430000000
H    -1.765000000     2.462000000     3.877000000
H    -0.722000000     1.555000000     4.494000000
O    -1.968000000    -3.350000000    -4.805000000
H    -1.819000000    -3.822000000    -3.986000000
H    -2.070000000    -2.436000000    -4.539000000
O    -0.291000000    -4.411000000    -2.850000000
H    -0.670000000    -5.228000000    -3.174000000
H     0.649000000    -4.506000000    -3.001000000
O     1.646000000    -2.661000000    -5.035000000
H     1.369000000    -2.627000000    -5.950000000
H     0.957000000    -2.197000000    -4.559000000
O    -7.025000000    -0.094000000     1.608000000
H    -7.090000000    -0.871000000     2.163000000
H    -6.163000000    -0.164000000     1.197000000
O     2.612000000    -3.237000000     4.633000000
H     2.661000000    -4.093000000     4.207000000
H     3.161000000    -2.669000000     4.093000000
O    -1.848000000     4.580000000    -0.877000000
H    -1.587000000     3.993000000    -1.586000000
H    -2.537000000     5.125000000    -1.258000000
O     2.499000000     0.962000000    -3.586000000
H     1.648000000     0.603000000    -3.838000000
H     2.313000000     1.507000000    -2.821000000
O     1.184000000     0.525000000     4.810000000
H     1.864000000     1.173000000     4.623000000
H     1.480000000    -0.267000000     4.363000000
O    -4.833000000     2.326000000    -0.269000000
H    -5.208000000     3.207000000    -0.293000000
H    -4.758000000     2.123000000     0.664000000
O     5.815000000     0.838000000     1.202000000
H     6.612000000     0.318000000     1.097000000
H     5.753000000     1.347000000     0.394000000
O     4.062000000     3.514000000    -1.715000000
H     3.137000000     3.307000000    -1.584000000
H     4.132000000     3.719000000    -2.648000000
O    -1.463000000     1.296000000    -5.248000000
H    -1.556000000     0.710000000    -4.497000000
H    -1.015000000     0.769000000    -5.910000000
O    -3.921000000     5.524000000     3.065000000
H    -3.506000000     6.318000000     2.727000000
H    -3.363000000     4.811000000     2.754000000
O     3.584000000    -0.675000000     3.024000000
H     3.815000000     0.243000000     2.879000000
H     4.422000000    -1.112000000     3.175000000
O     0.387000000    -0.218000000    -6.225000000
H     0.370000000    -0.640000000    -5.366000000
H     0.162000000    -0.916000000    -6.840000000
O    -4.234000000     1.823000000     2.625000000
H    -4.157000000     0.869000000     2.624000000
H    -3.348000000     2.136000000     2.445000000
O     4.718000000    -0.421000000    -2.505000000
H     5.560000000    -0.010000000    -2.700000000
H     4.083000000     0.077000000    -3.021000000
O    -3.490000000    -2.380000000    -1.502000000
H    -3.378000000    -1.852000000    -2.293000000
H    -3.485000000    -3.285000000    -1.815000000
O     3.052000000     4.616000000     2.506000000
H     3.761000000     4.356000000     1.918000000
H     2.339000000     4.874000000     1.922000000
O    -4.098000000    -0.859000000     3.378000000
H    -4.712000000    -1.225000000     4.014000000
H    -3.241000000    -0.948000000     3.793000000
O     1.419000000     2.851000000    -1.226000000
H     0.926000000     2.139000000    -0.818000000
H     0.760000000     3.359000000    -1.699000000
O     6.254000000     1.896000000     3.810000000
H     7.190000000     1.704000000     3.850000000
H     5.993000000     1.631000000     2.927000000
O     2.560000000     1.408000000    -7.043000000
H     2.292000000     2.327000000    -7.067000000
H     1.761000000     0.931000000    -6.822000000
O    -1.982000000    -2.349000000     1.393000000
H    -2.843000000    -2.231000000     0.993000000
H    -1.469000000    -1.603000000     1.082000000
O     3.325000000     2.232000000     3.917000000
H     3.143000000     3.122000000     3.616000000
H     4.273000000     2.212000000     4.045000000
O     0.170000000    -3.727000000     2.415000000
H     0.210000000    -3.915000000     3.353000000
H    -0.649000000    -3.246000000     2.302000000
O    -5.552000000    -3.559000000     0.148000000
H    -4.979000000    -3.709000000     0.899000000
H    -4.983000000    -3.164000000    -0.513000000
O     0.658000000     0.451000000     7.462000000
H     0.763000000     0.549000000     6.516000000
H    -0.290000000     0.450000000     7.599000000
O     0.730000000    -2.771000000    -7.608000000
H     0.932000000    -2.251000000    -8.386000000
H    -0.180000000    -3.041000000    -7.730000000
O    -0.224000000     4.667000000     4.353000000
H    -0.049000000     5.596000000     4.200000000
H    -0.880000000     4.658000000     5.049000000
