158
-3048.91412
C    -1.125000000     0.530000000    -0.874000000
H    -1.929000000     1.056000000    -1.383000000
C    -0.945000000     0.801000000     0.496000000
H    -1.668000000     1.495000000     0.916000000
C     0.167000000     0.335000000     1.197000000
H     0.375000000     0.432000000     2.259000000
C     1.039000000    -0.521000000     0.491000000
H     1.872000000    -0.994000000     1.005000000
C     0.990000000    -0.700000000    -0.876000000
H     1.807000000    -1.199000000    -1.391000000
C    -0.129000000    -0.231000000    -1.551000000
C    -0.359000000    -0.648000000    -2.964000000
O     0.407000000    -1.419000000    -3.537000000
O    -1.395000000    -0.244000000    -3.472000000
O     5.524000000    -1.849000000    -1.002000000
H     5.169000000    -1.035000000    -1.358000000
H     6.148000000    -2.148000000    -1.663000000
O    -1.741000000     3.826000000    -0.863000000
H    -1.926000000     3.832000000    -1.803000000
H    -2.563000000     3.548000000    -0.459000000
O    -1.560000000     3.800000000    -3.543000000
H    -1.533000000     3.005000000    -4.076000000
H    -0.653000000     4.106000000    -3.525000000
O     3.372000000    -4.371000000     0.781000000
H     3.739000000    -3.553000000     1.114000000
H     2.468000000    -4.374000000     1.095000000
O     3.783000000    -2.883000000    -5.139000000
H     3.315000000    -2.171000000    -4.705000000
H     3.422000000    -3.680000000    -4.750000000
O    -4.397000000     4.151000000    -0.063000000
H    -4.836000000     3.645000000    -0.746000000
H    -4.669000000     3.737000000     0.756000000
O     1.825000000     2.378000000    -5.425000000
H     1.069000000     1.806000000    -5.557000000
H     1.518000000     3.043000000    -4.809000000
O     2.261000000     5.556000000     2.590000000
H     1.447000000     5.068000000     2.710000000
H     2.045000000     6.228000000     1.943000000
O    -3.661000000     0.871000000    -3.948000000
H    -2.868000000     0.392000000    -3.706000000
H    -3.370000000     1.495000000    -4.613000000
O    -3.480000000    -2.754000000    -6.886000000
H    -3.338000000    -2.596000000    -5.953000000
H    -4.302000000    -2.305000000    -7.082000000
O    -0.606000000     4.335000000     2.340000000
H    -0.845000000     4.830000000     1.557000000
H    -1.419000000     3.907000000     2.610000000
O    -1.481000000     6.228000000     0.249000000
H    -2.355000000     6.601000000     0.366000000
H    -1.633000000     5.407000000    -0.220000000
O    -1.162000000    -3.382000000     0.166000000
H    -1.642000000    -3.454000000    -0.660000000
H    -1.790000000    -2.992000000     0.774000000
O     4.520000000    -4.922000000    -1.593000000
H     5.097000000    -4.184000000    -1.793000000
H     4.107000000    -4.685000000    -0.763000000
O    -4.016000000    -0.921000000    -1.566000000
H    -4.096000000    -0.994000000    -2.517000000
H    -3.480000000    -1.673000000    -1.313000000
O     0.644000000    -1.741000000     5.900000000
H     1.198000000    -1.520000000     5.151000000
H     0.308000000    -2.615000000     5.701000000
O     2.386000000     1.043000000     5.221000000
H     2.151000000     0.957000000     4.297000000
H     3.222000000     0.584000000     5.299000000
O    -2.733000000    -2.529000000    -4.280000000
H    -1.949000000    -3.061000000    -4.141000000
H    -2.417000000    -1.626000000    -4.253000000
O    -2.916000000    -3.860000000    -1.813000000
H    -3.324000000    -3.549000000    -2.621000000
H    -2.421000000    -4.635000000    -2.079000000
O    -5.075000000     2.353000000    -1.917000000
H    -4.636000000     1.785000000    -2.550000000
H    -5.610000000     1.758000000    -1.391000000
O    -0.067000000    -3.770000000    -4.808000000
H    -0.137000000    -3.520000000    -5.730000000
H     0.197000000    -2.966000000    -4.361000000
O     3.149000000    -4.786000000     5.283000000
H     3.448000000    -4.628000000     6.179000000
H     3.011000000    -3.912000000     4.919000000
O     2.804000000     0.461000000    -3.322000000
H     2.311000000    -0.355000000    -3.407000000
H     2.605000000     0.945000000    -4.123000000
O    -3.095000000     0.917000000    -7.654000000
H    -3.557000000     0.378000000    -8.295000000
H    -2.203000000     0.570000000    -7.647000000
O     2.525000000    -2.270000000     3.688000000
H     1.862000000    -2.595000000     3.079000000
H     3.289000000    -2.095000000     3.140000000
O    -5.021000000     3.271000000     2.894000000
H    -4.519000000     3.846000000     3.471000000
H    -4.533000000     2.447000000     2.893000000
O     2.952000000     1.025000000     2.666000000
H     3.731000000     1.282000000     2.173000000
H     2.219000000     1.337000000     2.135000000
O     3.639000000     2.297000000     0.099000000
H     2.850000000     2.579000000    -0.365000000
H     3.870000000     1.462000000    -0.307000000
O    -0.853000000     1.476000000    -5.350000000
H    -1.019000000     0.860000000    -4.636000000
H    -0.868000000     0.937000000    -6.140000000
O    -4.992000000     5.241000000    -2.969000000
H    -5.847000000     5.069000000    -3.363000000
H    -4.627000000     4.372000000    -2.801000000
O     4.512000000    -1.986000000     1.387000000
H     5.338000000    -1.814000000     1.838000000
H     4.756000000    -2.072000000     0.465000000
O     1.616000000    -1.328000000    -5.733000000
H     1.045000000    -1.355000000    -4.965000000
H     1.183000000    -1.893000000    -6.373000000
O    -3.919000000     0.856000000     3.049000000
H    -4.703000000     0.308000000     3.094000000
H    -3.274000000     0.394000000     3.584000000
O     4.981000000     0.739000000    -1.985000000
H     5.344000000     1.572000000    -2.288000000
H     4.166000000     0.640000000    -2.477000000
O    -5.508000000    -2.279000000    -3.506000000
H    -5.670000000    -1.843000000    -4.342000000
H    -5.474000000    -3.210000000    -3.723000000
O    -6.360000000     0.621000000    -0.457000000
H    -7.060000000     0.130000000    -0.026000000
H    -5.716000000    -0.044000000    -0.702000000
O    -2.852000000    -1.427000000     4.352000000
H    -2.820000000    -2.359000000     4.138000000
H    -2.832000000    -1.400000000     5.309000000
O     1.011000000     2.890000000    -0.612000000
H     0.658000000     2.012000000    -0.472000000
H     0.299000000     3.478000000    -0.356000000
O    -1.604000000     1.600000000     7.115000000
H    -0.740000000     2.010000000     7.173000000
H    -1.452000000     0.686000000     7.356000000
O    -0.580000000    -0.828000000     8.204000000
H    -0.217000000    -1.374000000     8.901000000
H    -0.211000000    -1.191000000     7.399000000
O     3.216000000    -0.081000000    -7.538000000
H     3.097000000     0.869000000    -7.514000000
H     2.496000000    -0.426000000    -7.011000000
O    -2.901000000    -1.884000000     1.634000000
H    -2.978000000    -1.587000000     2.541000000
H    -2.642000000    -1.101000000     1.148000000
O     4.826000000    -0.253000000     5.609000000
H     5.186000000    -1.136000000     5.697000000
H     5.150000000     0.055000000     4.763000000
O     3.243000000     3.864000000     6.102000000
H     3.035000000     3.037000000     5.666000000
H     3.846000000     4.305000000     5.504000000
O     0.799000000    -4.284000000     1.910000000
H     0.301000000    -4.718000000     2.603000000
H     0.133000000    -3.879000000     1.354000000
O     2.355000000    -5.015000000    -4.336000000
H     2.415000000    -5.619000000    -3.595000000
H     1.445000000    -4.716000000    -4.328000000
O     1.168000000     1.698000000     7.592000000
H     1.277000000     0.906000000     8.119000000
H     1.439000000     1.439000000     6.712000000
O    -0.815000000    -2.872000000    -7.184000000
H    -0.697000000    -2.617000000    -8.099000000
H    -1.765000000    -2.909000000    -7.067000000
