158
-3016.27704
C    -0.506000000     0.981000000    -1.002000000
H    -1.016000000     1.698000000    -1.641000000
C    -0.657000000     1.059000000     0.370000000
H    -1.161000000     1.954000000     0.726000000
C     0.007000000     0.151000000     1.239000000
H    -0.111000000     0.296000000     2.297000000
C     0.560000000    -0.988000000     0.688000000
H     0.957000000    -1.773000000     1.327000000
C     0.631000000    -1.158000000    -0.701000000
H     1.125000000    -2.011000000    -1.159000000
C     0.061000000    -0.172000000    -1.552000000
C     0.068000000    -0.529000000    -3.065000000
O     0.879000000    -1.290000000    -3.500000000
O    -0.691000000     0.074000000    -3.756000000
O     0.847000000     3.449000000    -4.754000000
H     0.428000000     2.668000000    -5.116000000
H     1.285000000     3.141000000    -3.961000000
O     3.253000000    -5.806000000    -0.093000000
H     3.643000000    -4.962000000     0.138000000
H     2.649000000    -5.994000000     0.625000000
O     4.883000000    -3.379000000     0.716000000
H     5.192000000    -2.703000000     1.320000000
H     5.651000000    -3.596000000     0.187000000
O    -2.385000000     4.784000000    -5.801000000
H    -2.778000000     3.961000000    -6.091000000
H    -2.152000000     4.630000000    -4.886000000
O     4.331000000     1.963000000    -4.695000000
H     3.727000000     1.269000000    -4.960000000
H     4.050000000     2.201000000    -3.811000000
O    -3.010000000     1.866000000    -4.056000000
H    -2.261000000     1.295000000    -3.886000000
H    -3.208000000     1.731000000    -4.983000000
O     0.756000000    -0.998000000    -8.059000000
H     0.095000000    -0.809000000    -7.393000000
H     0.358000000    -0.710000000    -8.880000000
O     2.018000000     3.170000000     2.427000000
H     2.234000000     4.093000000     2.558000000
H     1.134000000     3.079000000     2.781000000
O    -0.317000000     5.916000000     2.604000000
H    -0.440000000     5.050000000     2.994000000
H    -0.838000000     5.894000000     1.802000000
O    -4.277000000    -1.670000000    -4.090000000
H    -4.631000000    -2.547000000    -3.936000000
H    -3.820000000    -1.450000000    -3.278000000
O    -2.465000000     4.361000000     6.120000000
H    -3.094000000     3.669000000     5.915000000
H    -2.523000000     4.965000000     5.379000000
O    -2.987000000    -1.234000000    -1.385000000
H    -2.522000000    -1.188000000    -0.550000000
H    -2.884000000    -2.143000000    -1.667000000
O     0.112000000    -1.581000000     4.669000000
H     0.470000000    -2.453000000     4.835000000
H     0.875000000    -1.003000000     4.680000000
O    -1.643000000    -1.957000000    -5.774000000
H    -2.389000000    -1.911000000    -5.176000000
H    -0.877000000    -1.965000000    -5.201000000
O    -1.915000000    -3.538000000    -2.355000000
H    -0.971000000    -3.577000000    -2.513000000
H    -2.263000000    -4.316000000    -2.790000000
O    -5.352000000     2.334000000    -2.482000000
H    -5.354000000     1.830000000    -1.668000000
H    -4.490000000     2.170000000    -2.864000000
O     0.855000000    -4.121000000    -3.972000000
H     1.688000000    -4.583000000    -4.064000000
H     1.102000000    -3.216000000    -3.782000000
O     1.016000000     2.887000000     6.166000000
H     0.525000000     2.626000000     6.945000000
H     1.873000000     2.473000000     6.273000000
O    -1.538000000     6.305000000     0.037000000
H    -2.167000000     6.733000000     0.617000000
H    -2.072000000     5.729000000    -0.511000000
O    -0.438000000     5.787000000    -3.827000000
H    -1.297000000     5.517000000    -3.504000000
H     0.052000000     4.969000000    -3.919000000
O    -2.533000000    -2.030000000     4.802000000
H    -1.636000000    -1.747000000     4.624000000
H    -3.071000000    -1.267000000     4.589000000
O     3.407000000    -1.296000000    -2.020000000
H     3.332000000    -1.719000000    -1.164000000
H     2.504000000    -1.095000000    -2.266000000
O     2.487000000    -0.325000000     4.412000000
H     2.998000000     0.269000000     3.862000000
H     2.956000000    -1.158000000     4.365000000
O     3.986000000     1.409000000     3.025000000
H     4.527000000     1.617000000     2.264000000
H     3.158000000     1.861000000     2.862000000
O     5.025000000     1.327000000     0.444000000
H     5.422000000     1.118000000    -0.402000000
H     4.122000000     1.563000000     0.232000000
O    -3.850000000    -0.682000000    -7.851000000
H    -3.113000000    -0.756000000    -7.246000000
H    -3.554000000    -0.058000000    -8.514000000
O     0.166000000     0.963000000    -6.017000000
H    -0.251000000     0.635000000    -5.221000000
H     1.061000000     0.625000000    -5.976000000
O    -2.813000000     4.485000000    -2.983000000
H    -3.584000000     4.762000000    -2.487000000
H    -2.865000000     3.530000000    -2.993000000
O     5.355000000    -1.211000000     2.454000000
H     5.884000000    -0.787000000     3.129000000
H     4.862000000    -0.495000000     2.052000000
O     2.603000000    -0.088000000    -5.230000000
H     2.127000000    -0.429000000    -4.473000000
H     2.839000000    -0.866000000    -5.735000000
O    -3.920000000     2.619000000     2.312000000
H    -3.713000000     1.913000000     2.925000000
H    -4.228000000     2.170000000     1.525000000
O     6.048000000    -1.000000000    -2.748000000
H     6.422000000    -0.379000000    -2.124000000
H     5.101000000    -0.911000000    -2.636000000
O    -4.437000000     0.710000000    -0.460000000
H    -5.260000000     0.330000000    -0.153000000
H    -3.881000000    -0.046000000    -0.653000000
O    -4.109000000    -0.159000000     3.575000000
H    -4.298000000    -0.587000000     2.740000000
H    -4.953000000     0.186000000     3.864000000
O    -0.119000000    -5.969000000    -5.862000000
H    -0.325000000    -6.666000000    -5.239000000
H     0.333000000    -5.307000000    -5.340000000
O     2.562000000     2.222000000     0.051000000
H     1.931000000     1.503000000     0.080000000
H     2.366000000     2.745000000     0.828000000
O    -3.582000000     1.512000000     6.745000000
H    -4.247000000     1.197000000     6.133000000
H    -2.764000000     1.126000000     6.428000000
O    -0.976000000    -0.178000000     7.058000000
H    -1.189000000    -0.992000000     7.514000000
H    -0.343000000    -0.437000000     6.388000000
O     2.506000000     2.842000000    -2.630000000
H     2.484000000     2.707000000    -1.682000000
H     2.681000000     3.777000000    -2.735000000
O    -2.925000000    -3.035000000     1.572000000
H    -2.384000000    -2.408000000     2.052000000
H    -2.456000000    -3.865000000     1.651000000
O    -0.345000000     2.397000000    -8.343000000
H    -0.425000000     1.913000000    -7.521000000
H     0.445000000     2.044000000    -8.753000000
O     4.941000000     3.966000000     4.268000000
H     4.684000000     3.048000000     4.185000000
H     4.703000000     4.357000000     3.427000000
O    -1.352000000    -4.978000000     2.417000000
H    -1.476000000    -5.849000000     2.794000000
H    -0.492000000    -5.019000000     1.998000000
O     3.536000000    -4.675000000    -3.440000000
H     3.714000000    -4.356000000    -2.555000000
H     3.693000000    -5.618000000    -3.391000000
O    -4.819000000    -3.620000000     3.896000000
H    -4.731000000    -3.637000000     2.943000000
H    -4.157000000    -2.992000000     4.185000000
O     3.227000000     1.357000000     6.651000000
H     3.161000000     0.582000000     6.094000000
H     4.161000000     1.566000000     6.662000000
O     2.761000000    -2.838000000    -7.027000000
H     2.792000000    -3.493000000    -7.724000000
H     1.982000000    -2.316000000    -7.223000000
O    -0.464000000     3.340000000     3.707000000
H     0.014000000     3.424000000     4.531000000
H    -1.160000000     2.710000000     3.897000000
