158
-3021.64591
C    -0.917000000     0.307000000    -1.179000000
H    -1.733000000     0.330000000    -1.897000000
C    -1.202000000     0.662000000     0.092000000
H    -2.260000000     0.890000000     0.189000000
C    -0.261000000     0.396000000     1.175000000
H    -0.528000000     0.515000000     2.179000000
C     0.989000000    -0.242000000     0.851000000
H     1.611000000    -0.620000000     1.658000000
C     1.305000000    -0.539000000    -0.501000000
H     2.176000000    -1.140000000    -0.747000000
C     0.385000000    -0.219000000    -1.496000000
C     0.614000000    -0.558000000    -2.950000000
O     1.686000000    -0.958000000    -3.344000000
O    -0.218000000    -0.311000000    -3.807000000
O    -6.302000000     1.693000000     1.632000000
H    -6.834000000     1.593000000     0.842000000
H    -6.940000000     1.814000000     2.336000000
O     1.322000000     1.829000000    -5.401000000
H     1.964000000     1.307000000    -5.883000000
H     0.872000000     1.196000000    -4.841000000
O     3.580000000    -3.442000000    -0.102000000
H     3.515000000    -4.396000000    -0.049000000
H     4.138000000    -3.199000000     0.636000000
O    -2.062000000     1.147000000    -7.646000000
H    -2.994000000     1.087000000    -7.858000000
H    -1.964000000     2.007000000    -7.237000000
O     5.869000000    -3.208000000    -4.114000000
H     5.109000000    -2.756000000    -3.749000000
H     5.505000000    -3.986000000    -4.537000000
O    -3.199000000     3.598000000    -1.359000000
H    -3.878000000     4.199000000    -1.052000000
H    -3.210000000     2.881000000    -0.725000000
O     4.240000000     1.078000000    -3.659000000
H     3.991000000     0.513000000    -4.390000000
H     3.412000000     1.297000000    -3.232000000
O     3.616000000     3.552000000     0.723000000
H     3.800000000     4.350000000     0.226000000
H     2.689000000     3.379000000     0.564000000
O    -1.883000000     1.789000000    -4.072000000
H    -1.492000000     0.917000000    -4.129000000
H    -2.255000000     1.942000000    -4.940000000
O    -1.873000000     0.944000000     5.903000000
H    -1.823000000     1.046000000     4.952000000
H    -2.674000000     0.441000000     6.048000000
O     0.952000000     4.823000000     4.597000000
H     0.407000000     5.591000000     4.771000000
H     1.683000000     4.904000000     5.209000000
O     5.779000000     2.111000000    -1.778000000
H     5.679000000     3.034000000    -2.009000000
H     5.226000000     1.645000000    -2.406000000
O     0.197000000     5.064000000     2.013000000
H    -0.749000000     5.208000000     2.029000000
H     0.444000000     4.994000000     2.935000000
O    -3.743000000    -3.837000000    -2.603000000
H    -4.450000000    -4.459000000    -2.429000000
H    -3.736000000    -3.262000000    -1.837000000
O    -5.472000000     2.027000000    -5.116000000
H    -5.252000000     2.958000000    -5.080000000
H    -5.196000000     1.682000000    -4.266000000
O    -0.108000000     1.366000000     7.924000000
H    -0.625000000     1.119000000     8.690000000
H    -0.673000000     1.165000000     7.178000000
O    -0.959000000    -2.890000000     0.528000000
H    -0.536000000    -2.123000000     0.915000000
H    -0.417000000    -3.104000000    -0.231000000
O    -2.306000000     4.405000000     5.968000000
H    -1.951000000     3.566000000     6.263000000
H    -3.131000000     4.497000000     6.443000000
O     1.071000000    -3.077000000     5.796000000
H     1.609000000    -3.734000000     5.352000000
H     0.970000000    -3.413000000     6.686000000
O    -1.881000000    -2.334000000    -4.486000000
H    -2.190000000    -2.727000000    -3.670000000
H    -1.219000000    -1.700000000    -4.211000000
O    -2.372000000     4.625000000     3.183000000
H    -3.224000000     5.012000000     2.982000000
H    -2.363000000     4.550000000     4.138000000
O     0.154000000    -4.188000000    -1.671000000
H     0.832000000    -3.991000000    -2.317000000
H    -0.388000000    -4.856000000    -2.090000000
O    -5.036000000     0.550000000    -2.857000000
H    -4.087000000     0.475000000    -2.755000000
H    -5.254000000    -0.085000000    -3.540000000
O     1.887000000    -3.639000000    -3.890000000
H     2.265000000    -3.448000000    -4.749000000
H     1.506000000    -2.808000000    -3.607000000
O    -4.776000000    -0.761000000     1.183000000
H    -5.383000000    -0.052000000     1.394000000
H    -5.156000000    -1.534000000     1.600000000
O    -2.297000000     5.828000000     0.560000000
H    -2.742000000     5.410000000     1.297000000
H    -2.461000000     5.244000000    -0.181000000
O     0.291000000     4.307000000    -5.961000000
H     0.317000000     4.766000000    -5.122000000
H     0.665000000     3.446000000    -5.774000000
O    -4.740000000    -1.880000000    -4.303000000
H    -4.141000000    -2.268000000    -4.941000000
H    -4.888000000    -2.574000000    -3.661000000
O    -1.175000000    -1.528000000     3.924000000
H    -0.341000000    -1.827000000     4.285000000
H    -1.780000000    -2.252000000     4.088000000
O     4.175000000    -1.965000000    -2.394000000
H     4.011000000    -2.568000000    -1.669000000
H     3.307000000    -1.650000000    -2.644000000
O     4.342000000     0.478000000     3.240000000
H     4.304000000     0.460000000     2.283000000
H     3.474000000     0.782000000     3.507000000
O     4.525000000     0.555000000     0.351000000
H     5.079000000     1.231000000    -0.040000000
H     3.716000000     0.583000000    -0.160000000
O    -0.309000000    -1.194000000    -6.902000000
H    -0.673000000    -0.395000000    -7.283000000
H    -0.618000000    -1.190000000    -5.996000000
O    -1.128000000     4.023000000    -2.857000000
H    -1.728000000     3.957000000    -2.114000000
H    -1.184000000     3.169000000    -3.286000000
O    -1.611000000    -4.976000000    -5.691000000
H    -1.538000000    -4.074000000    -5.381000000
H    -0.749000000    -5.174000000    -6.059000000
O     3.091000000    -0.467000000    -5.363000000
H     2.657000000    -0.673000000    -4.535000000
H     2.978000000    -1.255000000    -5.895000000
O    -3.039000000     0.553000000     3.005000000
H    -2.512000000    -0.085000000     3.485000000
H    -3.516000000     0.033000000     2.359000000
O     6.600000000    -0.656000000    -1.747000000
H     6.177000000     0.100000000    -1.342000000
H     5.877000000    -1.173000000    -2.104000000
O    -3.643000000     2.762000000     1.265000000
H    -4.567000000     2.559000000     1.412000000
H    -3.169000000     2.098000000     1.766000000
O    -3.385000000    -2.423000000    -0.434000000
H    -3.795000000    -1.787000000     0.152000000
H    -2.519000000    -2.574000000    -0.055000000
O    -3.447000000    -3.175000000     4.239000000
H    -4.039000000    -2.840000000     3.566000000
H    -3.805000000    -2.839000000     5.061000000
O     1.175000000    -5.622000000    -5.696000000
H     0.954000000    -6.483000000    -5.340000000
H     1.510000000    -5.132000000    -4.945000000
O     2.408000000    -0.663000000     5.883000000
H     2.113000000    -1.552000000     5.687000000
H     3.350000000    -0.749000000     6.029000000
O     1.090000000     2.857000000     0.017000000
H     0.571000000     2.053000000     0.040000000
H     0.673000000     3.429000000     0.662000000
O     2.094000000     2.540000000    -2.346000000
H     1.556000000     2.631000000    -1.560000000
H     2.062000000     3.403000000    -2.759000000
O    -6.848000000     1.296000000    -1.025000000
H    -7.226000000     0.420000000    -0.949000000
H    -5.998000000     1.155000000    -1.443000000
O     2.819000000    -2.921000000    -6.422000000
H     3.598000000    -3.436000000    -6.634000000
H     2.170000000    -3.188000000    -7.073000000
O     1.656000000     2.064000000     3.972000000
H     1.182000000     1.714000000     4.726000000
H     1.342000000     2.965000000     3.890000000
