14
-91.75630
C    -0.461000000     0.127000000    -1.368000000
H    -1.074000000     0.210000000    -2.261000000
C    -1.084000000     0.636000000    -0.247000000
H    -2.078000000     1.040000000    -0.423000000
C    -0.474000000     0.530000000     0.987000000
H    -1.027000000     0.861000000     1.846000000
C     0.751000000    -0.060000000     1.156000000
H     1.192000000    -0.181000000     2.142000000
C     1.412000000    -0.556000000    -0.001000000
H     2.353000000    -1.081000000     0.140000000
C     0.779000000    -0.498000000    -1.251000000
C     1.253000000    -1.214000000    -2.504000000
O     2.049000000    -2.182000000    -2.382000000
O     0.934000000    -0.762000000    -3.645000000
