14
-91.07002
C    -0.843000000     0.484000000    -1.151000000
H    -1.394000000     0.899000000    -1.991000000
C    -1.203000000     0.419000000     0.188000000
H    -2.140000000     0.899000000     0.458000000
C    -0.387000000    -0.101000000     1.158000000
H    -0.620000000    -0.135000000     2.206000000
C     0.931000000    -0.390000000     0.811000000
H     1.549000000    -0.745000000     1.632000000
C     1.382000000    -0.280000000    -0.488000000
H     2.407000000    -0.562000000    -0.716000000
C     0.481000000     0.130000000    -1.502000000
C     0.921000000     0.191000000    -2.975000000
O     2.001000000    -0.262000000    -3.277000000
O     0.141000000     0.666000000    -3.773000000
