14
-89.41686
C    -0.846000000     0.553000000    -1.086000000
H    -1.527000000     0.919000000    -1.851000000
C    -1.146000000     0.725000000     0.251000000
H    -1.964000000     1.299000000     0.679000000
C    -0.229000000     0.225000000     1.243000000
H    -0.335000000     0.498000000     2.288000000
C     0.952000000    -0.347000000     0.791000000
H     1.661000000    -0.825000000     1.462000000
C     1.316000000    -0.455000000    -0.564000000
H     2.296000000    -0.802000000    -0.883000000
C     0.326000000    -0.094000000    -1.522000000
C     0.601000000    -0.380000000    -2.996000000
O     1.489000000    -1.196000000    -3.247000000
O    -0.010000000     0.176000000    -3.869000000
