14
-88.09920
C    -0.983000000     0.595000000    -0.960000000
H    -1.805000000     0.868000000    -1.616000000
C    -1.253000000     0.267000000     0.396000000
H    -2.278000000     0.293000000     0.758000000
C    -0.197000000    -0.173000000     1.232000000
H    -0.504000000    -0.605000000     2.214000000
C     1.094000000    -0.213000000     0.748000000
H     1.864000000    -0.634000000     1.390000000
C     1.375000000     0.056000000    -0.600000000
H     2.407000000    -0.073000000    -0.916000000
C     0.280000000     0.430000000    -1.447000000
C     0.570000000     0.759000000    -2.863000000
O     1.625000000     0.382000000    -3.402000000
O    -0.256000000     1.300000000    -3.594000000
