14
-88.88981
C    -1.456000000     0.172000000    -0.390000000
H    -2.532000000     0.324000000    -0.433000000
C    -0.975000000    -0.410000000     0.789000000
H    -1.652000000    -0.689000000     1.593000000
C     0.420000000    -0.505000000     1.040000000
H     0.762000000    -0.836000000     2.053000000
C     1.283000000    -0.080000000     0.082000000
H     2.353000000    -0.213000000     0.215000000
C     0.820000000     0.473000000    -1.130000000
H     1.572000000     0.740000000    -1.868000000
C    -0.555000000     0.681000000    -1.303000000
C    -1.014000000     1.327000000    -2.601000000
O    -2.162000000     1.709000000    -2.705000000
O    -0.203000000     1.615000000    -3.451000000
