14
-83.40274
C    -1.320000000    -0.063000000    -0.674000000
H    -2.275000000     0.180000000    -1.132000000
C    -1.152000000     0.426000000     0.626000000
H    -1.912000000     0.896000000     1.245000000
C     0.169000000     0.491000000     1.146000000
H     0.319000000     0.923000000     2.153000000
C     1.244000000    -0.041000000     0.400000000
H     2.259000000    -0.166000000     0.768000000
C     1.045000000    -0.522000000    -0.869000000
H     1.847000000    -1.003000000    -1.423000000
C    -0.215000000    -0.569000000    -1.465000000
C    -0.347000000    -1.046000000    -2.938000000
O     0.563000000    -0.853000000    -3.680000000
O    -1.338000000    -1.626000000    -3.326000000
