14
-80.98662
C    -0.455000000    -0.358000000    -1.351000000
H    -0.708000000    -0.707000000    -2.349000000
C     0.827000000    -0.331000000    -0.950000000
H     1.741000000    -0.473000000    -1.520000000
C     1.129000000     0.064000000     0.362000000
H     2.238000000     0.009000000     0.709000000
C     0.101000000     0.251000000     1.289000000
H     0.403000000     0.543000000     2.291000000
C    -1.197000000     0.236000000     0.886000000
H    -1.998000000     0.525000000     1.562000000
C    -1.504000000    -0.111000000    -0.440000000
C    -2.959000000    -0.039000000    -0.927000000
O    -3.843000000     0.056000000    -0.102000000
O    -3.152000000     0.159000000    -2.069000000
