14
-84.62915
C    -1.316000000     0.495000000     0.112000000
H    -2.314000000     0.906000000     0.239000000
C    -0.737000000    -0.388000000     1.025000000
H    -1.345000000    -0.628000000     1.893000000
C     0.589000000    -0.723000000     0.818000000
H     1.084000000    -1.345000000     1.594000000
C     1.278000000    -0.313000000    -0.348000000
H     2.324000000    -0.564000000    -0.506000000
C     0.679000000     0.546000000    -1.285000000
H     1.234000000     0.819000000    -2.179000000
C    -0.628000000     0.950000000    -0.992000000
C    -1.438000000     1.740000000    -2.015000000
O    -2.542000000     2.163000000    -1.756000000
O    -1.003000000     2.052000000    -3.095000000
