14
-90.47788
C    -0.245000000    -0.021000000    -1.504000000
H    -0.630000000     0.073000000    -2.517000000
C    -1.177000000    -0.248000000    -0.476000000
H    -2.143000000    -0.469000000    -0.922000000
C    -0.820000000    -0.356000000     0.872000000
H    -1.566000000    -0.662000000     1.594000000
C     0.502000000     0.020000000     1.241000000
H     0.765000000     0.074000000     2.294000000
C     1.471000000     0.272000000     0.215000000
H     2.505000000     0.523000000     0.436000000
C     1.069000000     0.238000000    -1.151000000
C     2.059000000     0.553000000    -2.225000000
O     1.915000000     0.118000000    -3.372000000
O     2.872000000     1.437000000    -1.933000000
