14
-86.81509
C    -1.415000000     0.396000000     0.396000000
H    -2.458000000     0.530000000     0.670000000
C    -0.552000000    -0.526000000     1.048000000
H    -1.032000000    -1.141000000     1.804000000
C     0.772000000    -0.702000000     0.669000000
H     1.317000000    -1.456000000     1.258000000
C     1.332000000     0.126000000    -0.285000000
H     2.363000000     0.009000000    -0.608000000
C     0.517000000     0.912000000    -1.056000000
H     0.904000000     1.423000000    -1.934000000
C    -0.902000000     1.069000000    -0.727000000
C    -1.826000000     1.870000000    -1.599000000
O    -3.057000000     1.791000000    -1.488000000
O    -1.332000000     2.604000000    -2.393000000
