14
-86.91704
C    -0.709000000     0.018000000    -1.311000000
H    -1.244000000    -0.222000000    -2.227000000
C    -1.165000000    -0.432000000    -0.125000000
H    -2.126000000    -0.939000000    -0.137000000
C    -0.456000000    -0.428000000     1.051000000
H    -0.854000000    -0.720000000     1.952000000
C     0.794000000     0.198000000     1.065000000
H     1.359000000     0.394000000     1.972000000
C     1.320000000     0.654000000    -0.162000000
H     2.306000000     1.105000000    -0.230000000
C     0.587000000     0.534000000    -1.322000000
C     1.159000000     1.093000000    -2.606000000
O     0.384000000     1.326000000    -3.529000000
O     2.340000000     1.250000000    -2.716000000
