14
-83.50748
C    -1.201000000     0.734000000     0.422000000
H    -2.115000000     1.237000000     0.730000000
C    -0.875000000    -0.506000000     0.902000000
H    -1.480000000    -1.062000000     1.613000000
C     0.344000000    -1.046000000     0.459000000
H     0.515000000    -2.002000000     0.760000000
C     1.160000000    -0.433000000    -0.469000000
H     2.067000000    -0.933000000    -0.797000000
C     0.746000000     0.771000000    -1.008000000
H     1.340000000     1.209000000    -1.806000000
C    -0.372000000     1.358000000    -0.546000000
C    -0.735000000     2.744000000    -1.190000000
O    -1.703000000     3.348000000    -0.781000000
O     0.115000000     3.332000000    -1.806000000
