14
-84.74589
C     0.032000000     1.046000000    -0.938000000
H    -0.039000000     1.848000000    -1.669000000
C    -1.066000000     0.869000000    -0.056000000
H    -1.999000000     1.410000000    -0.192000000
C    -0.935000000    -0.229000000     0.808000000
H    -1.806000000    -0.521000000     1.430000000
C     0.225000000    -0.937000000     0.851000000
H     0.218000000    -1.856000000     1.432000000
C     1.315000000    -0.776000000    -0.098000000
H     2.199000000    -1.407000000    -0.048000000
C     1.237000000     0.275000000    -0.936000000
C     2.285000000     0.684000000    -1.975000000
O     1.961000000     1.474000000    -2.864000000
O     3.362000000     0.088000000    -2.112000000
