14
-87.25176
C    -0.247000000     1.293000000    -0.691000000
H    -0.539000000     2.252000000    -1.110000000
C    -0.872000000     0.945000000     0.533000000
H    -1.520000000     1.707000000     0.958000000
C    -0.586000000    -0.312000000     1.046000000
H    -1.061000000    -0.675000000     1.935000000
C     0.178000000    -1.226000000     0.326000000
H     0.272000000    -2.230000000     0.731000000
C     0.891000000    -0.872000000    -0.795000000
H     1.628000000    -1.586000000    -1.152000000
C     0.617000000     0.427000000    -1.373000000
C     1.396000000     0.815000000    -2.654000000
O     1.241000000     1.909000000    -3.113000000
O     2.146000000     0.021000000    -3.191000000
