14
-87.25880
C    -0.013000000     1.206000000    -0.751000000
H    -0.191000000     2.134000000    -1.289000000
C    -0.971000000     0.754000000     0.146000000
H    -1.810000000     1.426000000     0.306000000
C    -0.872000000    -0.439000000     0.744000000
H    -1.478000000    -0.704000000     1.490000000
C     0.273000000    -1.191000000     0.519000000
H     0.416000000    -2.163000000     0.984000000
C     1.282000000    -0.749000000    -0.314000000
H     2.177000000    -1.350000000    -0.456000000
C     1.156000000     0.511000000    -0.930000000
C     2.145000000     0.945000000    -1.979000000
O     2.064000000     2.146000000    -2.362000000
O     2.954000000     0.189000000    -2.466000000
