14
-88.54149
C    -0.430000000     0.699000000    -1.167000000
H    -0.652000000     1.085000000    -2.159000000
C     0.861000000     0.342000000    -0.829000000
H     1.725000000     0.553000000    -1.454000000
C     1.144000000    -0.327000000     0.358000000
H     2.112000000    -0.661000000     0.604000000
C     0.077000000    -0.565000000     1.200000000
H     0.424000000    -1.060000000     2.103000000
C    -1.215000000    -0.215000000     0.868000000
H    -2.081000000    -0.411000000     1.496000000
C    -1.489000000     0.377000000    -0.354000000
C    -2.952000000     0.796000000    -0.727000000
O    -3.907000000     0.243000000    -0.262000000
O    -3.050000000     1.632000000    -1.608000000
