14
-90.29128
C    -0.275000000     0.528000000    -1.369000000
H    -0.579000000     1.012000000    -2.293000000
C    -1.095000000     0.584000000    -0.225000000
H    -1.956000000     1.233000000    -0.364000000
C    -0.756000000    -0.107000000     0.944000000
H    -1.527000000    -0.060000000     1.767000000
C     0.462000000    -0.799000000     1.047000000
H     0.615000000    -1.360000000     1.966000000
C     1.351000000    -0.726000000    -0.030000000
H     2.344000000    -1.121000000     0.167000000
C     0.987000000    -0.007000000    -1.203000000
C     2.015000000     0.187000000    -2.316000000
O     1.595000000     0.657000000    -3.373000000
O     3.200000000     0.018000000    -2.108000000
