14
-82.71296
C    -0.597000000     1.110000000    -0.822000000
H    -1.107000000     1.834000000    -1.452000000
C    -1.112000000     0.666000000     0.428000000
H    -1.971000000     1.227000000     0.787000000
C    -0.449000000    -0.367000000     1.111000000
H    -0.850000000    -0.637000000     2.156000000
C     0.690000000    -0.950000000     0.555000000
H     1.173000000    -1.768000000     1.083000000
C     1.239000000    -0.549000000    -0.676000000
H     2.164000000    -1.044000000    -0.958000000
C     0.547000000     0.499000000    -1.368000000
C     1.024000000     0.977000000    -2.697000000
O     0.768000000     2.125000000    -3.102000000
O     1.607000000     0.297000000    -3.492000000
