14
-87.68315
C    -0.696000000     1.146000000    -0.735000000
H    -1.143000000     2.055000000    -1.130000000
C    -0.949000000     0.734000000     0.604000000
H    -1.555000000     1.335000000     1.277000000
C    -0.294000000    -0.346000000     1.159000000
H    -0.432000000    -0.778000000     2.137000000
C     0.577000000    -1.105000000     0.335000000
H     1.020000000    -2.010000000     0.743000000
C     0.805000000    -0.725000000    -1.019000000
H     1.524000000    -1.345000000    -1.550000000
C     0.195000000     0.428000000    -1.494000000
C     0.564000000     0.922000000    -2.865000000
O     0.496000000     2.096000000    -3.217000000
O     1.037000000     0.130000000    -3.651000000
