14
-74.23865
C    -0.051000000     1.347000000    -0.540000000
H    -0.336000000     2.303000000    -0.973000000
C    -0.842000000     0.901000000     0.536000000
H    -1.739000000     1.443000000     0.824000000
C    -0.643000000    -0.424000000     0.945000000
H    -1.257000000    -0.896000000     1.660000000
C     0.336000000    -1.271000000     0.379000000
H     0.452000000    -2.344000000     0.512000000
C     1.126000000    -0.736000000    -0.635000000
H     1.907000000    -1.357000000    -1.066000000
C     0.944000000     0.553000000    -1.075000000
C     1.798000000     1.060000000    -2.200000000
O     1.843000000     2.261000000    -2.533000000
O     2.629000000     0.401000000    -2.657000000
