14
-77.65288
C    -0.443000000     1.129000000     0.895000000
H    -0.874000000     1.914000000     1.511000000
C    -1.259000000     0.319000000     0.150000000
H    -2.338000000     0.283000000     0.274000000
C    -0.780000000    -0.725000000    -0.672000000
H    -1.465000000    -1.200000000    -1.293000000
C     0.597000000    -0.947000000    -0.715000000
H     1.043000000    -1.730000000    -1.322000000
C     1.442000000    -0.104000000    -0.004000000
H     2.500000000    -0.068000000    -0.255000000
C     0.990000000     0.936000000     0.832000000
C     2.022000000     1.760000000     1.629000000
O     1.676000000     2.481000000     2.484000000
O     3.160000000     1.809000000     1.263000000
