14
-80.83135
C    -0.338000000     0.660000000    -1.281000000
H    -0.533000000     1.283000000    -2.150000000
C     0.943000000     0.592000000    -0.732000000
H     1.820000000     1.119000000    -1.099000000
C     1.131000000    -0.092000000     0.462000000
H     2.187000000    -0.194000000     0.830000000
C     0.076000000    -0.832000000     1.014000000
H     0.201000000    -1.273000000     2.000000000
C    -1.178000000    -0.652000000     0.453000000
H    -2.040000000    -1.061000000     0.972000000
C    -1.438000000     0.115000000    -0.666000000
C    -2.853000000     0.342000000    -1.144000000
O    -3.780000000    -0.314000000    -0.711000000
O    -3.116000000     1.173000000    -1.940000000
