14
-81.17588
C    -0.450000000     1.171000000    -0.744000000
H    -0.662000000     2.121000000    -1.228000000
C     0.876000000     0.816000000    -0.450000000
H     1.714000000     1.412000000    -0.802000000
C     1.156000000    -0.352000000     0.200000000
H     2.110000000    -0.708000000     0.201000000
C     0.140000000    -1.190000000     0.612000000
H     0.311000000    -2.112000000     1.161000000
C    -1.241000000    -0.806000000     0.444000000
H    -2.071000000    -1.399000000     0.820000000
C    -1.503000000     0.411000000    -0.267000000
C    -2.879000000     0.934000000    -0.411000000
O    -3.759000000     0.187000000    -0.050000000
O    -3.207000000     2.014000000    -0.824000000
