14
-90.59296
C     1.242000000    -0.650000000    -0.473000000
H     2.162000000    -1.166000000    -0.736000000
C     0.663000000    -0.872000000     0.825000000
H     1.205000000    -1.440000000     1.577000000
C    -0.574000000    -0.215000000     1.084000000
H    -1.016000000    -0.400000000     2.031000000
C    -1.112000000     0.667000000     0.137000000
H    -1.992000000     1.267000000     0.353000000
C    -0.576000000     0.768000000    -1.140000000
H    -1.106000000     1.327000000    -1.907000000
C     0.591000000     0.070000000    -1.432000000
C     1.323000000     0.245000000    -2.738000000
O     2.445000000    -0.201000000    -2.981000000
O     0.642000000     0.745000000    -3.656000000
