14
-86.22005
C     1.328000000    -0.661000000    -0.278000000
H     2.180000000    -1.317000000    -0.436000000
C     0.475000000    -0.901000000     0.829000000
H     0.725000000    -1.705000000     1.517000000
C    -0.663000000    -0.179000000     1.034000000
H    -1.265000000    -0.529000000     1.865000000
C    -1.070000000     0.831000000     0.078000000
H    -1.963000000     1.438000000     0.202000000
C    -0.232000000     0.993000000    -1.066000000
H    -0.463000000     1.791000000    -1.767000000
C     0.893000000     0.217000000    -1.284000000
C     1.616000000     0.279000000    -2.566000000
O     2.433000000    -0.576000000    -2.952000000
O     1.422000000     1.222000000    -3.323000000
