14
-84.80526
C    -0.395000000    -0.797000000    -1.196000000
H    -0.725000000    -1.432000000    -2.014000000
C    -0.779000000    -1.069000000     0.134000000
H    -1.639000000    -1.717000000     0.281000000
C    -0.307000000    -0.274000000     1.168000000
H    -0.688000000    -0.385000000     2.202000000
C     0.647000000     0.728000000     0.933000000
H     0.974000000     1.347000000     1.765000000
C     1.047000000     0.972000000    -0.401000000
H     1.818000000     1.699000000    -0.643000000
C     0.500000000     0.264000000    -1.444000000
C     0.793000000     0.619000000    -2.872000000
O     0.118000000     0.128000000    -3.741000000
O     1.744000000     1.256000000    -3.154000000
