14
-86.51405
C    -0.350000000    -0.719000000    -1.190000000
H    -0.640000000    -1.330000000    -2.041000000
C    -0.521000000    -1.228000000     0.127000000
H    -1.002000000    -2.161000000     0.410000000
C    -0.123000000    -0.372000000     1.141000000
H    -0.191000000    -0.827000000     2.161000000
C     0.430000000     0.890000000     0.907000000
H     0.728000000     1.517000000     1.743000000
C     0.529000000     1.373000000    -0.359000000
H     0.864000000     2.379000000    -0.597000000
C     0.096000000     0.566000000    -1.431000000
C     0.232000000     1.032000000    -2.842000000
O    -0.020000000     0.214000000    -3.765000000
O     0.616000000     2.114000000    -3.225000000
