14
-88.60750
C    -0.301000000    -0.956000000    -1.065000000
H    -0.466000000    -1.805000000    -1.724000000
C     0.109000000    -1.370000000     0.252000000
H     0.224000000    -2.413000000     0.534000000
C     0.409000000    -0.354000000     1.125000000
H     0.758000000    -0.561000000     2.144000000
C     0.215000000     1.006000000     0.741000000
H     0.312000000     1.846000000     1.425000000
C    -0.304000000     1.398000000    -0.506000000
H    -0.409000000     2.463000000    -0.698000000
C    -0.539000000     0.375000000    -1.458000000
C    -0.922000000     0.734000000    -2.882000000
O    -1.186000000    -0.124000000    -3.689000000
O    -0.844000000     1.909000000    -3.180000000
