14
-84.14686
C     0.215000000    -0.447000000    -1.411000000
H     0.338000000    -0.937000000    -2.373000000
C    -0.225000000    -1.217000000    -0.332000000
H    -0.316000000    -2.295000000    -0.433000000
C    -0.455000000    -0.705000000     0.898000000
H    -0.556000000    -1.397000000     1.804000000
C    -0.120000000     0.635000000     1.147000000
H    -0.183000000     0.952000000     2.185000000
C     0.225000000     1.466000000     0.086000000
H     0.425000000     2.522000000     0.247000000
C     0.409000000     0.921000000    -1.210000000
C     0.970000000     1.785000000    -2.324000000
O     0.872000000     1.441000000    -3.481000000
O     1.349000000     2.886000000    -2.066000000
