14
-87.91215
C     1.327000000    -0.317000000    -0.486000000
H     2.321000000    -0.617000000    -0.805000000
C     0.866000000    -0.571000000     0.798000000
H     1.450000000    -1.168000000     1.494000000
C    -0.441000000    -0.192000000     1.177000000
H    -0.782000000    -0.458000000     2.193000000
C    -1.193000000     0.455000000     0.216000000
H    -2.182000000     0.850000000     0.437000000
C    -0.677000000     0.833000000    -1.027000000
H    -1.368000000     1.331000000    -1.703000000
C     0.623000000     0.414000000    -1.437000000
C     1.110000000     0.654000000    -2.823000000
O     2.155000000     0.160000000    -3.199000000
O     0.466000000     1.285000000    -3.661000000
