14
-89.25304
C     1.095000000    -0.272000000    -0.991000000
H     1.850000000    -0.446000000    -1.754000000
C     1.312000000    -0.030000000     0.389000000
H     2.297000000    -0.013000000     0.850000000
C     0.190000000     0.320000000     1.197000000
H     0.413000000     0.679000000     2.182000000
C    -1.075000000     0.347000000     0.683000000
H    -1.874000000     0.624000000     1.366000000
C    -1.296000000    -0.051000000    -0.638000000
H    -2.310000000    -0.074000000    -1.029000000
C    -0.234000000    -0.304000000    -1.516000000
C    -0.531000000    -0.649000000    -3.002000000
O     0.318000000    -0.338000000    -3.830000000
O    -1.539000000    -1.188000000    -3.344000000
