14
-90.22930
C    -0.379000000     1.337000000    -0.306000000
H    -0.613000000     2.399000000    -0.328000000
C     0.783000000     0.986000000     0.328000000
H     1.437000000     1.725000000     0.783000000
C     1.077000000    -0.352000000     0.533000000
H     1.977000000    -0.644000000     1.021000000
C     0.141000000    -1.315000000     0.066000000
H     0.388000000    -2.359000000     0.239000000
C    -0.961000000    -0.925000000    -0.647000000
H    -1.624000000    -1.707000000    -1.007000000
C    -1.286000000     0.409000000    -0.760000000
C    -2.595000000     0.759000000    -1.459000000
O    -3.262000000    -0.070000000    -2.080000000
O    -3.011000000     1.933000000    -1.460000000
