14
-84.15311
C     0.815000000     0.226000000    -1.231000000
H     1.371000000     0.616000000    -2.079000000
C     0.797000000     0.958000000    -0.062000000
H     1.344000000     1.896000000    -0.023000000
C     0.011000000     0.653000000     1.039000000
H    -0.146000000     1.240000000     1.941000000
C    -0.763000000    -0.449000000     0.924000000
H    -1.341000000    -0.720000000     1.804000000
C    -0.799000000    -1.247000000    -0.249000000
H    -1.334000000    -2.192000000    -0.197000000
C    -0.016000000    -0.899000000    -1.324000000
C    -0.055000000    -1.772000000    -2.526000000
O     0.558000000    -1.414000000    -3.537000000
O    -0.734000000    -2.730000000    -2.507000000
