14
-87.63039
C     0.991000000    -0.429000000    -0.955000000
H     1.805000000    -0.641000000    -1.643000000
C     1.111000000     0.673000000    -0.123000000
H     2.009000000     1.281000000    -0.043000000
C     0.057000000     0.922000000     0.784000000
H     0.229000000     1.685000000     1.520000000
C    -1.072000000     0.178000000     0.816000000
H    -1.816000000     0.415000000     1.573000000
C    -1.228000000    -0.901000000    -0.086000000
H    -2.104000000    -1.544000000    -0.078000000
C    -0.170000000    -1.193000000    -1.009000000
C    -0.366000000    -2.349000000    -1.982000000
O     0.447000000    -2.522000000    -2.903000000
O    -1.277000000    -3.149000000    -1.950000000
