14
-89.27602
C     0.847000000    -0.191000000    -1.239000000
H     1.522000000    -0.110000000    -2.087000000
C     0.740000000     1.010000000    -0.437000000
H     1.352000000     1.865000000    -0.714000000
C    -0.029000000     1.028000000     0.692000000
H    -0.105000000     1.983000000     1.242000000
C    -0.736000000    -0.150000000     1.054000000
H    -1.320000000    -0.125000000     1.971000000
C    -0.606000000    -1.310000000     0.258000000
H    -1.078000000    -2.206000000     0.653000000
C     0.136000000    -1.326000000    -0.928000000
C     0.100000000    -2.494000000    -1.814000000
O     0.949000000    -2.601000000    -2.694000000
O    -0.672000000    -3.404000000    -1.582000000
