14
-93.20496
C    -0.509000000     0.143000000    -1.360000000
H    -0.976000000     0.268000000    -2.334000000
C    -0.616000000     1.145000000    -0.380000000
H    -1.070000000     2.110000000    -0.590000000
C    -0.107000000     0.915000000     0.856000000
H    -0.110000000     1.631000000     1.702000000
C     0.486000000    -0.333000000     1.145000000
H     0.949000000    -0.485000000     2.116000000
C     0.608000000    -1.370000000     0.165000000
H     1.084000000    -2.329000000     0.354000000
C     0.100000000    -1.141000000    -1.103000000
C     0.162000000    -2.180000000    -2.237000000
O    -0.322000000    -1.860000000    -3.321000000
O     0.721000000    -3.258000000    -2.060000000
