14
-91.20690
C     0.993000000     0.079000000    -1.106000000
H     1.723000000     0.317000000    -1.875000000
C     0.795000000     1.010000000    -0.084000000
H     1.485000000     1.850000000    -0.101000000
C    -0.124000000     0.819000000     0.918000000
H    -0.332000000     1.500000000     1.746000000
C    -0.972000000    -0.286000000     0.859000000
H    -1.759000000    -0.427000000     1.595000000
C    -0.814000000    -1.220000000    -0.127000000
H    -1.417000000    -2.125000000    -0.118000000
C     0.166000000    -1.032000000    -1.198000000
C     0.281000000    -2.027000000    -2.376000000
O     1.235000000    -2.069000000    -3.152000000
O    -0.632000000    -2.868000000    -2.495000000
