14
-89.50081
C    -0.776000000     0.735000000    -1.027000000
H    -1.345000000     1.387000000    -1.686000000
C    -0.597000000     1.104000000     0.277000000
H    -1.058000000     2.012000000     0.654000000
C     0.064000000     0.279000000     1.175000000
H     0.056000000     0.392000000     2.244000000
C     0.716000000    -0.881000000     0.728000000
H     1.343000000    -1.515000000     1.350000000
C     0.631000000    -1.199000000    -0.626000000
H     1.124000000    -2.071000000    -1.048000000
C    -0.074000000    -0.374000000    -1.502000000
C    -0.250000000    -0.708000000    -2.992000000
O    -1.054000000    -0.206000000    -3.762000000
O     0.418000000    -1.664000000    -3.392000000
