14
-88.38115
C    -0.945000000     0.704000000    -0.994000000
H    -1.579000000     1.215000000    -1.715000000
C    -0.927000000     0.936000000     0.425000000
H    -1.545000000     1.677000000     0.926000000
C     0.019000000     0.223000000     1.195000000
H    -0.015000000     0.389000000     2.303000000
C     0.989000000    -0.666000000     0.614000000
H     1.719000000    -1.204000000     1.215000000
C     1.067000000    -0.832000000    -0.768000000
H     1.848000000    -1.427000000    -1.234000000
C     0.079000000    -0.183000000    -1.541000000
C    -0.159000000    -0.566000000    -2.997000000
O    -1.104000000    -0.079000000    -3.634000000
O     0.596000000    -1.390000000    -3.534000000
