14
-83.78392
C     0.823000000     0.914000000    -0.891000000
H     1.388000000     1.695000000    -1.394000000
C     0.542000000     1.106000000     0.443000000
H     0.829000000     2.067000000     0.864000000
C    -0.154000000     0.136000000     1.232000000
H    -0.296000000     0.327000000     2.321000000
C    -0.456000000    -1.088000000     0.601000000
H    -1.035000000    -1.778000000     1.210000000
C    -0.264000000    -1.225000000    -0.761000000
H    -0.681000000    -2.117000000    -1.220000000
C     0.350000000    -0.260000000    -1.554000000
C     0.293000000    -0.432000000    -3.023000000
O     0.311000000     0.553000000    -3.778000000
O     0.355000000    -1.510000000    -3.607000000
