14
-84.95169
C    -0.864000000     0.324000000    -1.087000000
H    -1.648000000     0.530000000    -1.811000000
C    -1.196000000     0.512000000     0.290000000
H    -2.177000000     0.775000000     0.678000000
C    -0.242000000     0.186000000     1.175000000
H    -0.520000000     0.393000000     2.229000000
C     0.949000000    -0.376000000     0.830000000
H     1.614000000    -0.574000000     1.666000000
C     1.264000000    -0.602000000    -0.554000000
H     2.197000000    -1.128000000    -0.740000000
C     0.352000000    -0.137000000    -1.547000000
C     0.596000000    -0.422000000    -3.069000000
O    -0.148000000     0.055000000    -3.897000000
O     1.513000000    -1.190000000    -3.412000000
