14
-90.72004
C    -0.559000000     0.963000000    -0.949000000
H    -1.024000000     1.714000000    -1.582000000
C    -0.381000000     1.169000000     0.442000000
H    -0.688000000     2.087000000     0.937000000
C     0.156000000     0.171000000     1.212000000
H     0.197000000     0.314000000     2.312000000
C     0.650000000    -0.943000000     0.590000000
H     0.957000000    -1.782000000     1.208000000
C     0.565000000    -1.112000000    -0.802000000
H     1.072000000    -1.979000000    -1.218000000
C    -0.050000000    -0.180000000    -1.620000000
C    -0.201000000    -0.328000000    -3.104000000
O    -0.777000000     0.563000000    -3.739000000
O     0.102000000    -1.368000000    -3.668000000
