14
-85.56367
C    -1.209000000     0.252000000    -0.742000000
H    -2.157000000     0.393000000    -1.255000000
C    -1.070000000     0.119000000     0.637000000
H    -2.002000000     0.253000000     1.180000000
C     0.162000000    -0.090000000     1.242000000
H     0.176000000    -0.219000000     2.296000000
C     1.260000000    -0.337000000     0.430000000
H     2.138000000    -0.780000000     0.893000000
C     1.131000000    -0.209000000    -0.970000000
H     1.970000000    -0.493000000    -1.601000000
C    -0.109000000     0.130000000    -1.572000000
C    -0.215000000     0.317000000    -3.105000000
O    -1.262000000     0.628000000    -3.581000000
O     0.803000000     0.454000000    -3.765000000
