14
-88.55069
C    -0.253000000     1.468000000     0.231000000
H    -0.458000000     2.516000000     0.434000000
C    -0.096000000     0.491000000     1.248000000
H    -0.061000000     0.693000000     2.315000000
C     0.111000000    -0.811000000     0.915000000
H     0.315000000    -1.619000000     1.654000000
C     0.227000000    -1.208000000    -0.434000000
H     0.517000000    -2.226000000    -0.679000000
C     0.043000000    -0.274000000    -1.454000000
H     0.106000000    -0.600000000    -2.489000000
C    -0.128000000     1.081000000    -1.089000000
C    -0.251000000     2.114000000    -2.220000000
O     0.072000000     3.314000000    -2.057000000
O    -0.539000000     1.735000000    -3.305000000
