14
-84.32718
C    -1.162000000     0.934000000    -0.374000000
H    -1.845000000     1.743000000    -0.618000000
C    -0.762000000     0.620000000     0.952000000
H    -1.238000000     1.205000000     1.735000000
C     0.254000000    -0.337000000     1.155000000
H     0.585000000    -0.545000000     2.135000000
C     0.845000000    -1.058000000     0.126000000
H     1.593000000    -1.796000000     0.401000000
C     0.530000000    -0.659000000    -1.152000000
H     1.074000000    -1.095000000    -1.985000000
C    -0.540000000     0.234000000    -1.416000000
C    -0.748000000     0.642000000    -2.874000000
O    -1.527000000     1.531000000    -3.169000000
O    -0.165000000     0.128000000    -3.786000000
