14
-75.30916
C     0.198000000     0.878000000     1.194000000
H     0.193000000     1.474000000     2.103000000
C    -0.296000000    -0.430000000     1.180000000
H    -0.562000000    -0.870000000     2.138000000
C    -0.297000000    -1.168000000     0.002000000
H    -0.516000000    -2.296000000    -0.002000000
C     0.137000000    -0.584000000    -1.135000000
H     0.041000000    -1.215000000    -2.014000000
C     0.476000000     0.751000000    -1.187000000
H     0.667000000     1.201000000    -2.158000000
C     0.484000000     1.514000000    -0.020000000
C     0.903000000     2.904000000     0.065000000
O     0.746000000     3.590000000     1.069000000
O     1.256000000     3.462000000    -0.899000000
