14
-88.71965
C     1.490000000     0.152000000    -0.067000000
H     2.527000000     0.086000000    -0.384000000
C     0.784000000    -1.023000000     0.327000000
H     1.280000000    -1.986000000     0.416000000
C    -0.636000000    -1.030000000     0.405000000
H    -1.272000000    -1.887000000     0.711000000
C    -1.276000000     0.163000000     0.075000000
H    -2.362000000     0.148000000     0.033000000
C    -0.619000000     1.341000000    -0.206000000
H    -1.200000000     2.248000000    -0.350000000
C     0.770000000     1.351000000    -0.321000000
C     1.462000000     2.717000000    -0.746000000
O     2.686000000     2.789000000    -0.664000000
O     0.782000000     3.525000000    -1.304000000
