14
-84.58119
C     1.369000000    -0.737000000    -0.164000000
H     2.271000000    -1.333000000    -0.278000000
C     0.135000000    -1.353000000     0.196000000
H    -0.036000000    -2.414000000     0.360000000
C    -1.036000000    -0.571000000     0.237000000
H    -2.003000000    -1.013000000     0.594000000
C    -1.005000000     0.761000000     0.007000000
H    -1.911000000     1.354000000     0.099000000
C     0.213000000     1.351000000    -0.363000000
H     0.099000000     2.432000000    -0.353000000
C     1.437000000     0.645000000    -0.404000000
C     2.688000000     1.419000000    -0.611000000
O     3.780000000     0.953000000    -0.289000000
O     2.574000000     2.565000000    -0.942000000
