14
-89.38828
C     1.452000000    -0.324000000     0.137000000
H     2.432000000    -0.761000000     0.308000000
C     0.400000000    -1.206000000     0.300000000
H     0.584000000    -2.241000000     0.576000000
C    -0.966000000    -0.808000000     0.041000000
H    -1.834000000    -1.495000000     0.247000000
C    -1.229000000     0.539000000    -0.158000000
H    -2.238000000     0.921000000    -0.290000000
C    -0.120000000     1.426000000    -0.336000000
H    -0.309000000     2.478000000    -0.535000000
C     1.215000000     1.004000000    -0.208000000
C     2.343000000     1.980000000    -0.356000000
O     3.448000000     1.687000000     0.048000000
O     2.114000000     3.068000000    -0.837000000
