14
-91.47719
C     1.322000000    -0.482000000     0.523000000
H     2.242000000    -0.926000000     0.895000000
C     0.112000000    -1.188000000     0.593000000
H     0.062000000    -2.219000000     0.934000000
C    -1.045000000    -0.580000000     0.081000000
H    -2.004000000    -1.071000000     0.117000000
C    -1.037000000     0.694000000    -0.506000000
H    -1.985000000     1.015000000    -0.930000000
C     0.135000000     1.413000000    -0.478000000
H     0.084000000     2.406000000    -0.917000000
C     1.345000000     0.812000000     0.021000000
C     2.655000000     1.571000000    -0.064000000
O     3.721000000     0.997000000     0.026000000
O     2.558000000     2.728000000    -0.434000000
