14
-85.24166
C     1.376000000    -0.077000000     0.392000000
H     2.390000000    -0.249000000     0.743000000
C     0.424000000    -1.104000000     0.515000000
H     0.639000000    -2.082000000     0.937000000
C    -0.895000000    -0.831000000     0.105000000
H    -1.670000000    -1.662000000     0.027000000
C    -1.158000000     0.420000000    -0.369000000
H    -2.172000000     0.494000000    -0.754000000
C    -0.249000000     1.473000000    -0.347000000
H    -0.529000000     2.341000000    -0.938000000
C     1.062000000     1.170000000    -0.071000000
C     2.095000000     2.187000000    -0.238000000
O     3.298000000     1.848000000    -0.089000000
O     1.787000000     3.372000000    -0.440000000
