14
-94.20657
C     1.174000000     0.824000000     0.341000000
H     2.104000000     1.325000000     0.597000000
C     0.967000000    -0.485000000     0.768000000
H     1.711000000    -0.913000000     1.435000000
C    -0.193000000    -1.169000000     0.372000000
H    -0.326000000    -2.178000000     0.713000000
C    -1.109000000    -0.546000000    -0.494000000
H    -1.961000000    -1.098000000    -0.881000000
C    -0.876000000     0.790000000    -0.893000000
H    -1.629000000     1.300000000    -1.489000000
C     0.280000000     1.462000000    -0.530000000
C     0.491000000     2.921000000    -0.941000000
O     1.486000000     3.566000000    -0.569000000
O    -0.228000000     3.375000000    -1.824000000
