14
-86.23408
C     1.455000000    -0.095000000     0.189000000
H     2.509000000    -0.216000000     0.425000000
C     0.546000000    -1.025000000     0.678000000
H     0.868000000    -1.902000000     1.234000000
C    -0.807000000    -0.790000000     0.504000000
H    -1.525000000    -1.549000000     0.859000000
C    -1.222000000     0.339000000    -0.161000000
H    -2.299000000     0.427000000    -0.273000000
C    -0.287000000     1.250000000    -0.715000000
H    -0.656000000     2.113000000    -1.265000000
C     1.083000000     1.024000000    -0.535000000
C     1.936000000     2.157000000    -1.079000000
O     3.118000000     2.004000000    -0.996000000
O     1.457000000     3.176000000    -1.472000000
