14
-84.26328
C     1.406000000    -0.388000000    -0.043000000
H     2.428000000    -0.711000000    -0.228000000
C     0.308000000    -1.203000000    -0.213000000
H     0.447000000    -2.220000000    -0.570000000
C    -0.975000000    -0.710000000    -0.113000000
H    -1.763000000    -1.402000000    -0.373000000
C    -1.192000000     0.591000000     0.117000000
H    -2.163000000     1.076000000     0.060000000
C    -0.120000000     1.424000000     0.355000000
H    -0.262000000     2.487000000     0.532000000
C     1.197000000     0.909000000     0.361000000
C     2.455000000     1.770000000     0.601000000
O     3.572000000     1.337000000     0.469000000
O     2.331000000     2.976000000     0.738000000
