14
-84.20970
C     1.152000000    -0.927000000    -0.306000000
H     1.828000000    -1.773000000    -0.402000000
C    -0.124000000    -1.104000000    -0.790000000
H    -0.323000000    -1.997000000    -1.377000000
C    -1.135000000    -0.147000000    -0.486000000
H    -2.193000000    -0.434000000    -0.885000000
C    -0.839000000     0.954000000     0.249000000
H    -1.640000000     1.655000000     0.467000000
C     0.459000000     1.109000000     0.773000000
H     0.714000000     2.043000000     1.266000000
C     1.492000000     0.219000000     0.458000000
C     2.890000000     0.435000000     1.030000000
O     3.772000000    -0.301000000     0.665000000
O     3.122000000     1.459000000     1.592000000
