14
-88.96871
C     0.804000000    -0.424000000    -1.165000000
H     1.257000000    -0.948000000    -2.002000000
C    -0.529000000    -0.812000000    -0.896000000
H    -1.027000000    -1.515000000    -1.560000000
C    -1.177000000    -0.273000000     0.202000000
H    -2.245000000    -0.372000000     0.322000000
C    -0.542000000     0.600000000     1.050000000
H    -1.094000000     0.976000000     1.907000000
C     0.778000000     0.970000000     0.785000000
H     1.353000000     1.549000000     1.504000000
C     1.478000000     0.552000000    -0.371000000
C     2.909000000     0.996000000    -0.646000000
O     3.559000000     0.512000000    -1.537000000
O     3.384000000     1.788000000     0.134000000
