14
-85.32046
C     1.466000000    -0.273000000    -0.126000000
H     2.507000000    -0.579000000    -0.191000000
C     0.455000000    -0.982000000    -0.717000000
H     0.683000000    -1.814000000    -1.378000000
C    -0.868000000    -0.672000000    -0.492000000
H    -1.583000000    -1.154000000    -1.140000000
C    -1.239000000     0.345000000     0.402000000
H    -2.271000000     0.604000000     0.627000000
C    -0.200000000     1.069000000     0.983000000
H    -0.523000000     1.967000000     1.502000000
C     1.143000000     0.823000000     0.671000000
C     2.224000000     1.732000000     1.204000000
O     3.373000000     1.517000000     0.953000000
O     1.942000000     2.568000000     2.026000000
