14
-93.22745
C    -0.042000000    -0.019000000    -1.518000000
H     0.054000000    -0.065000000    -2.600000000
C     1.053000000    -0.407000000    -0.752000000
H     1.985000000    -0.793000000    -1.157000000
C     1.013000000    -0.373000000     0.630000000
H     1.876000000    -0.667000000     1.291000000
C    -0.144000000     0.091000000     1.208000000
H    -0.251000000     0.104000000     2.290000000
C    -1.239000000     0.456000000     0.462000000
H    -2.155000000     0.721000000     0.983000000
C    -1.255000000     0.436000000    -0.942000000
C    -2.471000000     0.798000000    -1.745000000
O    -2.396000000     0.767000000    -2.981000000
O    -3.394000000     1.193000000    -1.057000000
