14
-81.76777
C    -0.276000000    -0.181000000    -1.428000000
H    -0.395000000    -0.553000000    -2.442000000
C     0.761000000    -0.723000000    -0.726000000
H     1.423000000    -1.368000000    -1.298000000
C     0.927000000    -0.481000000     0.642000000
H     1.685000000    -1.014000000     1.201000000
C    -0.074000000     0.144000000     1.355000000
H     0.017000000     0.093000000     2.437000000
C    -1.135000000     0.771000000     0.661000000
H    -1.914000000     1.392000000     1.097000000
C    -1.154000000     0.751000000    -0.782000000
C    -2.239000000     1.420000000    -1.600000000
O    -2.289000000     1.253000000    -2.809000000
O    -3.209000000     1.934000000    -1.071000000
