14
-84.91451
C     0.105000000    -0.929000000    -1.197000000
H     0.095000000    -1.671000000    -1.992000000
C     0.473000000    -1.318000000     0.139000000
H     0.694000000    -2.348000000     0.410000000
C     0.302000000    -0.306000000     1.157000000
H     0.559000000    -0.605000000     2.217000000
C    -0.108000000     1.005000000     0.811000000
H    -0.088000000     1.773000000     1.581000000
C    -0.308000000     1.421000000    -0.501000000
H    -0.680000000     2.434000000    -0.626000000
C    -0.163000000     0.387000000    -1.501000000
C    -0.506000000     0.763000000    -2.888000000
O    -0.395000000    -0.048000000    -3.776000000
O    -0.925000000     1.901000000    -3.026000000
