14
-83.41734
C    -0.197000000    -0.752000000    -1.282000000
H    -0.213000000    -1.376000000    -2.172000000
C    -0.167000000    -1.322000000     0.008000000
H    -0.196000000    -2.401000000     0.142000000
C     0.069000000    -0.507000000     1.074000000
H     0.168000000    -0.867000000     2.057000000
C     0.075000000     0.858000000     0.944000000
H     0.247000000     1.459000000     1.834000000
C    -0.125000000     1.551000000    -0.277000000
H    -0.125000000     2.627000000    -0.427000000
C    -0.177000000     0.701000000    -1.406000000
C    -0.080000000     1.291000000    -2.746000000
O    -0.358000000     0.627000000    -3.774000000
O     0.590000000     2.291000000    -2.789000000
