14
-86.89637
C     0.261000000    -0.504000000    -1.325000000
H     0.312000000    -0.985000000    -2.299000000
C    -0.753000000    -0.925000000    -0.489000000
H    -1.531000000    -1.622000000    -0.788000000
C    -0.896000000    -0.362000000     0.739000000
H    -1.803000000    -0.608000000     1.339000000
C    -0.044000000     0.670000000     1.130000000
H    -0.328000000     1.176000000     2.049000000
C     1.097000000     1.002000000     0.394000000
H     1.805000000     1.794000000     0.622000000
C     1.287000000     0.354000000    -0.867000000
C     2.493000000     0.685000000    -1.712000000
O     2.757000000    -0.090000000    -2.623000000
O     3.087000000     1.724000000    -1.609000000
