14
-86.59681
C    -0.279000000    -0.395000000    -1.402000000
H    -0.666000000    -0.633000000    -2.389000000
C    -0.779000000    -1.040000000    -0.320000000
H    -1.507000000    -1.847000000    -0.354000000
C    -0.362000000    -0.647000000     0.972000000
H    -0.757000000    -1.232000000     1.762000000
C     0.459000000     0.481000000     1.105000000
H     0.778000000     0.709000000     2.119000000
C     0.982000000     1.117000000     0.014000000
H     1.502000000     2.066000000     0.124000000
C     0.636000000     0.659000000    -1.261000000
C     0.955000000     1.516000000    -2.421000000
O     0.162000000     1.624000000    -3.356000000
O     2.039000000     2.042000000    -2.471000000
