14
-86.84022
C    -0.419000000    -0.294000000    -1.335000000
H    -0.644000000    -0.374000000    -2.395000000
C     0.846000000    -0.568000000    -0.845000000
H     1.639000000    -0.945000000    -1.487000000
C     1.087000000    -0.311000000     0.469000000
H     2.087000000    -0.433000000     0.827000000
C     0.127000000     0.278000000     1.281000000
H     0.309000000     0.426000000     2.342000000
C    -1.126000000     0.595000000     0.762000000
H    -1.856000000     1.160000000     1.335000000
C    -1.406000000     0.291000000    -0.585000000
C    -2.719000000     0.722000000    -1.261000000
O    -2.758000000     0.909000000    -2.507000000
O    -3.781000000     0.825000000    -0.700000000
