14
-92.83929
C    -0.213000000     0.490000000    -1.400000000
H    -0.427000000     0.812000000    -2.416000000
C     0.175000000    -0.812000000    -1.036000000
H     0.347000000    -1.580000000    -1.786000000
C     0.413000000    -1.104000000     0.303000000
H     0.784000000    -2.165000000     0.613000000
C     0.190000000    -0.167000000     1.312000000
H     0.407000000    -0.372000000     2.357000000
C    -0.324000000     1.060000000     0.919000000
H    -0.648000000     1.783000000     1.663000000
C    -0.568000000     1.412000000    -0.407000000
C    -1.197000000     2.739000000    -0.745000000
O    -1.077000000     3.200000000    -1.898000000
O    -1.947000000     3.183000000     0.100000000
