14
-84.99224
C    -0.935000000     0.027000000    -1.104000000
H    -1.572000000    -0.079000000    -1.978000000
C     0.287000000    -0.656000000    -1.032000000
H     0.573000000    -1.327000000    -1.837000000
C     1.043000000    -0.688000000     0.130000000
H     1.868000000    -1.419000000     0.322000000
C     0.579000000     0.116000000     1.191000000
H     1.204000000     0.052000000     2.078000000
C    -0.507000000     0.938000000     1.098000000
H    -0.850000000     1.624000000     1.869000000
C    -1.270000000     0.857000000    -0.071000000
C    -2.488000000     1.692000000    -0.206000000
O    -2.808000000     2.070000000    -1.318000000
O    -3.095000000     2.204000000     0.735000000
