14
-85.50322
C    -0.564000000     1.282000000    -0.628000000
H    -0.842000000     2.181000000    -1.172000000
C    -0.041000000     0.205000000    -1.291000000
H    -0.005000000     0.250000000    -2.376000000
C     0.476000000    -0.917000000    -0.641000000
H     0.807000000    -1.743000000    -1.186000000
C     0.431000000    -0.982000000     0.770000000
H     0.623000000    -1.936000000     1.254000000
C    -0.012000000     0.104000000     1.476000000
H    -0.157000000     0.030000000     2.551000000
C    -0.626000000     1.258000000     0.783000000
C    -1.205000000     2.325000000     1.661000000
O    -1.872000000     3.200000000     1.176000000
O    -0.913000000     2.314000000     2.835000000
