14
-85.59138
C    -0.304000000     0.841000000    -1.194000000
H    -0.543000000     1.447000000    -2.065000000
C     0.314000000    -0.388000000    -1.303000000
H     0.562000000    -0.770000000    -2.291000000
C     0.519000000    -1.084000000    -0.083000000
H     0.912000000    -2.158000000    -0.064000000
C     0.265000000    -0.474000000     1.183000000
H     0.559000000    -1.045000000     2.060000000
C    -0.352000000     0.755000000     1.276000000
H    -0.665000000     1.121000000     2.250000000
C    -0.731000000     1.362000000     0.079000000
C    -1.389000000     2.719000000     0.195000000
O    -1.827000000     3.236000000    -0.794000000
O    -1.560000000     3.218000000     1.282000000
