14
-88.65683
C    -0.154000000     0.963000000    -1.076000000
H    -0.115000000     1.638000000    -1.927000000
C     0.569000000    -0.242000000    -1.213000000
H     1.005000000    -0.474000000    -2.181000000
C     0.664000000    -1.061000000    -0.055000000
H     1.179000000    -2.034000000    -0.148000000
C     0.043000000    -0.632000000     1.210000000
H     0.085000000    -1.312000000     2.058000000
C    -0.650000000     0.546000000     1.282000000
H    -0.987000000     0.848000000     2.270000000
C    -0.843000000     1.307000000     0.147000000
C    -1.577000000     2.630000000     0.213000000
O    -1.409000000     3.502000000    -0.680000000
O    -2.333000000     2.858000000     1.172000000
