14
-78.67047
C     0.807000000     1.104000000    -0.703000000
H     1.344000000     1.860000000    -1.270000000
C     0.433000000    -0.127000000    -1.295000000
H     0.714000000    -0.359000000    -2.320000000
C    -0.269000000    -1.055000000    -0.536000000
H    -0.527000000    -1.949000000    -1.048000000
C    -0.616000000    -0.827000000     0.796000000
H    -1.186000000    -1.550000000     1.374000000
C    -0.172000000     0.383000000     1.349000000
H    -0.413000000     0.662000000     2.372000000
C     0.491000000     1.334000000     0.650000000
C     0.755000000     2.641000000     1.397000000
O     1.591000000     3.403000000     1.108000000
O     0.095000000     2.935000000     2.361000000
