14
-90.69065
C    -0.189000000     1.443000000    -0.186000000
H    -0.218000000     2.513000000    -0.376000000
C     0.521000000     0.635000000    -1.049000000
H     1.012000000     1.043000000    -1.929000000
C     0.559000000    -0.778000000    -0.841000000
H     1.210000000    -1.412000000    -1.409000000
C    -0.134000000    -1.290000000     0.283000000
H    -0.154000000    -2.367000000     0.431000000
C    -0.812000000    -0.427000000     1.166000000
H    -1.325000000    -0.863000000     2.020000000
C    -0.799000000     0.964000000     0.972000000
C    -1.390000000     1.815000000     2.069000000
O    -1.564000000     3.014000000     1.901000000
O    -1.789000000     1.345000000     3.143000000
