14
-88.39357
C     0.385000000     1.357000000    -0.512000000
H     0.807000000     2.247000000    -0.973000000
C     0.090000000     0.231000000    -1.341000000
H     0.376000000     0.263000000    -2.389000000
C    -0.328000000    -0.973000000    -0.756000000
H    -0.385000000    -1.811000000    -1.399000000
C    -0.414000000    -1.033000000     0.645000000
H    -0.740000000    -1.970000000     1.090000000
C    -0.122000000     0.071000000     1.424000000
H    -0.273000000    -0.001000000     2.498000000
C     0.242000000     1.303000000     0.870000000
C     0.640000000     2.483000000     1.781000000
O     0.664000000     3.626000000     1.385000000
O     1.105000000     2.263000000     2.893000000
