14
-89.97739
C     1.071000000     1.006000000    -0.151000000
H     1.937000000     1.644000000    -0.304000000
C     0.839000000    -0.098000000    -0.949000000
H     1.400000000    -0.279000000    -1.862000000
C    -0.292000000    -0.937000000    -0.771000000
H    -0.470000000    -1.794000000    -1.414000000
C    -1.109000000    -0.653000000     0.302000000
H    -1.862000000    -1.410000000     0.507000000
C    -0.858000000     0.316000000     1.243000000
H    -1.562000000     0.502000000     2.050000000
C     0.276000000     1.178000000     1.017000000
C     0.613000000     2.244000000     2.004000000
O     1.658000000     2.876000000     1.815000000
O    -0.145000000     2.500000000     2.917000000
