14
-80.46880
C     0.051000000     1.486000000     0.260000000
H     0.199000000     2.563000000     0.241000000
C    -0.114000000     0.953000000    -0.942000000
H    -0.281000000     1.558000000    -1.830000000
C    -0.211000000    -0.475000000    -1.076000000
H    -0.462000000    -0.988000000    -2.085000000
C    -0.100000000    -1.284000000    -0.022000000
H     0.036000000    -2.360000000    -0.106000000
C     0.150000000    -0.701000000     1.205000000
H     0.225000000    -1.330000000     2.089000000
C     0.112000000     0.688000000     1.400000000
C     0.439000000     1.237000000     2.763000000
O     0.665000000     2.430000000     2.818000000
O     0.430000000     0.581000000     3.820000000
