14
-74.20611
C    -0.064000000     1.026000000    -1.149000000
H    -0.092000000     1.654000000    -2.035000000
C    -0.193000000    -0.385000000    -1.298000000
H    -0.587000000    -0.826000000    -2.210000000
C    -0.108000000    -1.207000000    -0.194000000
H    -0.358000000    -2.254000000    -0.210000000
C     0.098000000    -0.657000000     1.057000000
H     0.280000000    -1.308000000     1.908000000
C     0.306000000     0.708000000     1.221000000
H     0.595000000     1.064000000     2.207000000
C     0.136000000     1.559000000     0.104000000
C     0.389000000     2.957000000     0.475000000
O     0.540000000     3.691000000    -0.395000000
O     0.582000000     3.390000000     1.668000000
