14
-81.69417
C     0.242000000     1.170000000    -0.939000000
H     0.615000000     1.983000000    -1.557000000
C     0.410000000    -0.179000000    -1.241000000
H     0.755000000    -0.466000000    -2.231000000
C     0.032000000    -1.180000000    -0.300000000
H    -0.132000000    -2.239000000    -0.710000000
C    -0.372000000    -0.827000000     0.943000000
H    -0.427000000    -1.593000000     1.713000000
C    -0.388000000     0.522000000     1.389000000
H    -0.703000000     0.818000000     2.386000000
C    -0.099000000     1.529000000     0.384000000
C    -0.199000000     2.983000000     0.702000000
O    -0.354000000     3.750000000    -0.224000000
O     0.270000000     3.320000000     1.786000000
