14
-85.06330
C    -0.967000000     0.778000000    -0.898000000
H    -1.756000000     1.295000000    -1.436000000
C    -1.014000000    -0.605000000    -0.723000000
H    -1.796000000    -1.190000000    -1.202000000
C    -0.002000000    -1.248000000    -0.052000000
H    -0.071000000    -2.366000000     0.036000000
C     1.021000000    -0.517000000     0.548000000
H     1.740000000    -1.017000000     1.192000000
C     0.994000000     0.925000000     0.545000000
H     1.844000000     1.387000000     1.040000000
C     0.021000000     1.592000000    -0.199000000
C    -0.070000000     3.054000000    -0.171000000
O    -0.600000000     3.685000000    -1.072000000
O     0.621000000     3.667000000     0.638000000
