14
-87.53798
C    -0.199000000     0.652000000    -1.237000000
H    -0.215000000     1.123000000    -2.217000000
C    -0.135000000    -0.700000000    -1.088000000
H    -0.400000000    -1.276000000    -1.971000000
C     0.055000000    -1.237000000     0.179000000
H    -0.043000000    -2.329000000     0.317000000
C     0.280000000    -0.351000000     1.260000000
H     0.509000000    -0.815000000     2.216000000
C     0.253000000     1.026000000     1.103000000
H     0.490000000     1.712000000     1.912000000
C    -0.096000000     1.593000000    -0.145000000
C     0.003000000     3.010000000    -0.431000000
O    -0.055000000     3.425000000    -1.580000000
O     0.012000000     3.789000000     0.543000000
