14
-82.50412
C     1.406000000    -0.132000000    -0.504000000
H     2.401000000    -0.246000000    -0.925000000
C     0.598000000    -1.180000000    -0.308000000
H     0.953000000    -2.185000000    -0.524000000
C    -0.739000000    -1.004000000     0.093000000
H    -1.390000000    -1.869000000     0.101000000
C    -1.146000000     0.340000000     0.331000000
H    -2.182000000     0.490000000     0.621000000
C    -0.324000000     1.451000000     0.305000000
H    -0.674000000     2.442000000     0.584000000
C     1.019000000     1.239000000    -0.125000000
C     1.914000000     2.414000000    -0.324000000
O     2.851000000     2.245000000    -1.042000000
O     1.426000000     3.490000000    -0.035000000
