14
-81.00392
C     1.127000000     0.253000000     0.845000000
H     1.987000000     0.283000000     1.508000000
C     1.185000000    -0.419000000    -0.376000000
H     2.056000000    -0.879000000    -0.836000000
C     0.060000000    -0.540000000    -1.104000000
H     0.199000000    -0.983000000    -2.059000000
C    -1.173000000    -0.104000000    -0.579000000
H    -2.104000000    -0.170000000    -1.136000000
C    -1.215000000     0.523000000     0.649000000
H    -2.199000000     0.796000000     1.021000000
C    -0.099000000     0.776000000     1.331000000
C    -0.024000000     1.679000000     2.598000000
O     0.948000000     1.695000000     3.328000000
O    -0.813000000     2.611000000     2.700000000
