14
-84.15855
C     0.421000000     0.738000000     1.196000000
H     0.687000000     1.114000000     2.180000000
C     0.795000000    -0.554000000     0.879000000
H     1.461000000    -1.201000000     1.445000000
C     0.385000000    -1.112000000    -0.301000000
H     0.645000000    -2.110000000    -0.538000000
C    -0.374000000    -0.371000000    -1.166000000
H    -0.701000000    -0.893000000    -2.062000000
C    -0.829000000     0.880000000    -0.756000000
H    -1.630000000     1.238000000    -1.398000000
C    -0.435000000     1.480000000     0.417000000
C    -0.897000000     2.872000000     0.798000000
O    -0.584000000     3.329000000     1.927000000
O    -1.569000000     3.526000000     0.070000000
