14
-84.10658
C    -0.582000000    -0.142000000     1.387000000
H    -1.051000000    -0.398000000     2.334000000
C    -1.342000000     0.065000000     0.237000000
H    -2.422000000     0.136000000     0.143000000
C    -0.666000000     0.217000000    -0.996000000
H    -1.162000000     0.271000000    -1.940000000
C     0.739000000     0.162000000    -1.040000000
H     1.301000000     0.284000000    -1.963000000
C     1.460000000    -0.027000000     0.084000000
H     2.538000000    -0.163000000     0.051000000
C     0.827000000    -0.238000000     1.299000000
C     1.702000000    -0.501000000     2.509000000
O     2.896000000    -0.523000000     2.394000000
O     1.274000000    -0.532000000     3.651000000
