14
-82.66968
C     0.838000000    -0.366000000     1.157000000
H     1.686000000    -0.429000000     1.834000000
C     1.053000000    -0.683000000    -0.209000000
H     2.024000000    -0.942000000    -0.623000000
C     0.107000000    -0.366000000    -1.178000000
H     0.225000000    -0.554000000    -2.268000000
C    -1.043000000     0.226000000    -0.795000000
H    -1.700000000     0.579000000    -1.586000000
C    -1.318000000     0.457000000     0.576000000
H    -2.232000000     0.990000000     0.822000000
C    -0.361000000     0.211000000     1.554000000
C    -0.469000000     0.640000000     3.014000000
O     0.338000000     0.335000000     3.883000000
O    -1.440000000     1.247000000     3.331000000
