14
-84.42559
C     0.551000000     0.502000000     1.208000000
H     1.059000000     0.914000000     2.077000000
C     1.211000000     0.460000000     0.036000000
H     2.182000000     0.944000000    -0.038000000
C     0.585000000    -0.068000000    -1.105000000
H     1.021000000    -0.196000000    -2.020000000
C    -0.682000000    -0.650000000    -0.976000000
H    -1.193000000    -0.950000000    -1.888000000
C    -1.324000000    -0.576000000     0.314000000
H    -2.306000000    -1.036000000     0.390000000
C    -0.709000000     0.005000000     1.430000000
C    -1.390000000     0.165000000     2.778000000
O    -0.801000000     0.458000000     3.793000000
O    -2.594000000    -0.021000000     2.846000000
