14
-81.66296
C    -1.056000000     0.965000000    -0.055000000
H    -1.707000000     1.826000000    -0.180000000
C     0.113000000     1.090000000     0.601000000
H     0.279000000     2.053000000     1.078000000
C     0.998000000     0.048000000     0.791000000
H     1.840000000     0.082000000     1.468000000
C     0.686000000    -1.161000000     0.110000000
H     1.261000000    -2.074000000     0.243000000
C    -0.402000000    -1.226000000    -0.743000000
H    -0.488000000    -2.156000000    -1.298000000
C    -1.297000000    -0.111000000    -0.906000000
C    -2.425000000    -0.237000000    -1.819000000
O    -2.666000000    -1.290000000    -2.460000000
O    -3.310000000     0.601000000    -1.830000000
