14
-82.32720
C    -0.468000000     0.835000000     1.102000000
H    -0.803000000     1.509000000     1.886000000
C    -0.706000000     1.087000000    -0.257000000
H    -1.262000000     1.986000000    -0.511000000
C    -0.214000000     0.182000000    -1.193000000
H    -0.346000000     0.458000000    -2.188000000
C     0.385000000    -1.005000000    -0.802000000
H     0.601000000    -1.696000000    -1.613000000
C     0.619000000    -1.283000000     0.592000000
H     1.043000000    -2.179000000     1.037000000
C     0.244000000    -0.290000000     1.503000000
C     0.427000000    -0.564000000     2.941000000
O     0.276000000     0.328000000     3.702000000
O     1.073000000    -1.565000000     3.279000000
