14
-84.51547
C    -1.331000000     0.338000000     0.478000000
H    -2.254000000     0.541000000     1.015000000
C    -0.220000000     0.129000000     1.301000000
H    -0.188000000     0.442000000     2.342000000
C     1.015000000    -0.182000000     0.786000000
H     1.821000000    -0.261000000     1.440000000
C     1.006000000    -0.461000000    -0.606000000
H     1.921000000    -0.756000000    -1.112000000
C    -0.130000000    -0.178000000    -1.464000000
H     0.006000000    -0.297000000    -2.536000000
C    -1.327000000     0.233000000    -0.905000000
C    -2.557000000     0.618000000    -1.780000000
O    -2.666000000     0.249000000    -2.926000000
O    -3.435000000     1.293000000    -1.277000000
