14
-84.71904
C     0.604000000     1.321000000     0.041000000
H     1.112000000     2.282000000     0.076000000
C     0.300000000     0.556000000    -1.123000000
H     0.558000000     0.934000000    -2.108000000
C    -0.229000000    -0.706000000    -1.017000000
H    -0.346000000    -1.241000000    -1.933000000
C    -0.560000000    -1.143000000     0.218000000
H    -1.149000000    -2.050000000     0.316000000
C    -0.261000000    -0.429000000     1.362000000
H    -0.498000000    -0.804000000     2.355000000
C     0.273000000     0.841000000     1.274000000
C     0.507000000     1.765000000     2.546000000
O     1.136000000     2.854000000     2.439000000
O     0.267000000     1.364000000     3.650000000
