14
-86.23892
C     0.644000000     0.982000000     0.999000000
H     1.107000000     1.775000000     1.580000000
C     0.251000000     1.271000000    -0.347000000
H     0.489000000     2.201000000    -0.857000000
C    -0.449000000     0.299000000    -1.098000000
H    -0.801000000     0.517000000    -2.077000000
C    -0.600000000    -1.007000000    -0.627000000
H    -1.120000000    -1.771000000    -1.199000000
C    -0.093000000    -1.356000000     0.611000000
H    -0.175000000    -2.397000000     0.913000000
C     0.572000000    -0.368000000     1.401000000
C     1.158000000    -0.928000000     2.762000000
O     1.470000000    -0.143000000     3.672000000
O     1.098000000    -2.094000000     2.985000000
