14
-88.72291
C     0.361000000     1.111000000     0.935000000
H     0.550000000     2.043000000     1.462000000
C     0.514000000     1.127000000    -0.486000000
H     0.841000000     1.943000000    -1.125000000
C     0.176000000     0.004000000    -1.208000000
H     0.156000000     0.149000000    -2.315000000
C    -0.332000000    -1.112000000    -0.578000000
H    -0.649000000    -1.999000000    -1.120000000
C    -0.538000000    -1.149000000     0.824000000
H    -1.048000000    -1.992000000     1.284000000
C    -0.150000000    -0.044000000     1.563000000
C    -0.534000000     0.084000000     3.051000000
O    -0.262000000     1.083000000     3.684000000
O    -1.097000000    -0.859000000     3.563000000
