14
-86.24004
C    -1.229000000     0.787000000    -0.336000000
H    -2.257000000     1.087000000    -0.521000000
C    -0.832000000     0.335000000     0.962000000
H    -1.544000000     0.383000000     1.782000000
C     0.428000000    -0.228000000     1.165000000
H     0.806000000    -0.546000000     2.161000000
C     1.252000000    -0.490000000     0.041000000
H     2.203000000    -0.988000000     0.212000000
C     0.777000000    -0.246000000    -1.235000000
H     1.252000000    -0.650000000    -2.126000000
C    -0.429000000     0.410000000    -1.470000000
C    -0.938000000     0.768000000    -2.851000000
O    -0.507000000     0.269000000    -3.870000000
O    -1.897000000     1.533000000    -2.977000000
