14
-87.15601
C     0.956000000    -0.556000000    -0.921000000
H     1.617000000    -0.761000000    -1.759000000
C    -0.327000000    -0.282000000    -1.238000000
H    -0.513000000    -0.223000000    -2.307000000
C    -1.180000000     0.091000000    -0.208000000
H    -2.180000000     0.462000000    -0.408000000
C    -0.717000000     0.144000000     1.132000000
H    -1.399000000     0.469000000     1.915000000
C     0.606000000    -0.091000000     1.417000000
H     0.873000000     0.075000000     2.457000000
C     1.476000000    -0.384000000     0.400000000
C     2.978000000    -0.426000000     0.573000000
O     3.656000000    -0.737000000    -0.399000000
O     3.319000000    -0.067000000     1.665000000
