14
-81.88123
C     1.313000000     0.831000000    -0.015000000
H     2.162000000     1.504000000    -0.104000000
C     0.413000000     0.645000000    -1.096000000
H     0.628000000     1.144000000    -2.037000000
C    -0.703000000    -0.150000000    -0.943000000
H    -1.327000000    -0.297000000    -1.836000000
C    -0.920000000    -0.909000000     0.194000000
H    -1.743000000    -1.606000000     0.324000000
C    -0.113000000    -0.618000000     1.247000000
H    -0.360000000    -1.066000000     2.207000000
C     0.994000000     0.223000000     1.181000000
C     1.824000000     0.433000000     2.412000000
O     2.792000000     1.129000000     2.343000000
O     1.292000000     0.267000000     3.489000000
