14
-83.57338
C     1.353000000     0.215000000    -0.331000000
H     2.350000000     0.312000000    -0.754000000
C     0.311000000     0.189000000    -1.240000000
H     0.530000000     0.283000000    -2.300000000
C    -0.933000000     0.017000000    -0.802000000
H    -1.805000000     0.028000000    -1.473000000
C    -1.089000000    -0.308000000     0.561000000
H    -2.088000000    -0.533000000     0.925000000
C    -0.036000000    -0.229000000     1.486000000
H    -0.300000000    -0.274000000     2.539000000
C     1.198000000     0.041000000     1.041000000
C     2.478000000     0.048000000     1.946000000
O     3.600000000     0.006000000     1.480000000
O     2.354000000    -0.052000000     3.158000000
