14
-82.07406
C     1.392000000    -0.281000000    -0.638000000
H     2.339000000    -0.557000000    -1.093000000
C     0.178000000    -0.332000000    -1.354000000
H     0.188000000    -0.566000000    -2.416000000
C    -1.030000000    -0.053000000    -0.628000000
H    -2.006000000    -0.036000000    -1.250000000
C    -1.044000000     0.274000000     0.704000000
H    -1.985000000     0.347000000     1.243000000
C     0.154000000     0.285000000     1.366000000
H     0.141000000     0.566000000     2.416000000
C     1.392000000     0.087000000     0.727000000
C     2.631000000     0.155000000     1.642000000
O     3.612000000     0.623000000     1.161000000
O     2.557000000    -0.100000000     2.793000000
