14
-90.95520
C     0.963000000     0.829000000    -0.773000000
H     1.600000000     1.509000000    -1.333000000
C    -0.425000000     0.781000000    -1.001000000
H    -0.825000000     1.358000000    -1.831000000
C    -1.188000000    -0.060000000    -0.222000000
H    -2.258000000    -0.108000000    -0.462000000
C    -0.647000000    -0.819000000     0.774000000
H    -1.314000000    -1.437000000     1.368000000
C     0.720000000    -0.724000000     1.012000000
H     1.130000000    -1.323000000     1.821000000
C     1.513000000     0.183000000     0.325000000
C     2.968000000     0.299000000     0.614000000
O     3.618000000     1.072000000    -0.059000000
O     3.518000000    -0.316000000     1.545000000
