14
-92.96949
C    -1.377000000    -0.361000000    -0.476000000
H    -2.310000000    -0.810000000    -0.806000000
C    -0.964000000    -0.471000000     0.844000000
H    -1.623000000    -0.905000000     1.592000000
C     0.345000000    -0.065000000     1.144000000
H     0.662000000    -0.115000000     2.133000000
C     1.219000000     0.374000000     0.206000000
H     2.254000000     0.626000000     0.426000000
C     0.781000000     0.594000000    -1.130000000
H     1.471000000     0.959000000    -1.886000000
C    -0.488000000     0.099000000    -1.463000000
C    -0.925000000     0.307000000    -2.881000000
O    -0.004000000     0.266000000    -3.730000000
O    -2.137000000     0.416000000    -3.109000000
