14
-78.89295
C     0.119000000    -0.716000000    -1.358000000
H     0.205000000    -1.240000000    -2.306000000
C    -1.090000000    -0.245000000    -0.809000000
H    -2.048000000    -0.344000000    -1.312000000
C    -1.067000000     0.300000000     0.478000000
H    -1.979000000     0.653000000     0.911000000
C     0.156000000     0.475000000     1.194000000
H     0.266000000     0.909000000     2.184000000
C     1.324000000     0.043000000     0.596000000
H     2.213000000     0.061000000     1.222000000
C     1.320000000    -0.542000000    -0.646000000
C     2.663000000    -0.851000000    -1.258000000
O     2.688000000    -1.816000000    -1.993000000
O     3.570000000    -0.136000000    -1.222000000
