14
-91.81254
C     0.485000000    -0.567000000    -1.332000000
H     0.671000000    -1.039000000    -2.293000000
C    -0.676000000     0.151000000    -1.179000000
H    -1.341000000     0.450000000    -1.985000000
C    -1.026000000     0.650000000     0.086000000
H    -1.903000000     1.289000000     0.226000000
C    -0.216000000     0.435000000     1.180000000
H    -0.449000000     0.880000000     2.144000000
C     0.967000000    -0.273000000     0.986000000
H     1.597000000    -0.374000000     1.865000000
C     1.351000000    -0.805000000    -0.245000000
C     2.693000000    -1.560000000    -0.393000000
O     2.928000000    -2.160000000    -1.417000000
O     3.364000000    -1.675000000     0.607000000
