14
-84.51863
C     0.055000000    -0.496000000    -1.393000000
H    -0.009000000    -0.949000000    -2.379000000
C    -0.277000000    -1.181000000    -0.220000000
H    -0.704000000    -2.178000000    -0.301000000
C    -0.218000000    -0.631000000     1.014000000
H    -0.500000000    -1.240000000     1.876000000
C     0.235000000     0.699000000     1.166000000
H     0.287000000     1.093000000     2.178000000
C     0.574000000     1.448000000     0.041000000
H     0.942000000     2.464000000     0.158000000
C     0.404000000     0.842000000    -1.203000000
C     0.736000000     1.635000000    -2.467000000
O     0.884000000     1.079000000    -3.551000000
O     0.749000000     2.819000000    -2.478000000
