14
-88.72416
C     0.185000000    -0.742000000    -1.264000000
H     0.349000000    -1.450000000    -2.073000000
C    -0.549000000    -1.201000000    -0.139000000
H    -1.046000000    -2.167000000    -0.152000000
C    -0.612000000    -0.389000000     0.959000000
H    -1.165000000    -0.735000000     1.846000000
C    -0.090000000     0.871000000     1.006000000
H    -0.264000000     1.447000000     1.912000000
C     0.588000000     1.343000000    -0.163000000
H     1.141000000     2.278000000    -0.201000000
C     0.629000000     0.576000000    -1.283000000
C     1.320000000     1.112000000    -2.581000000
O     1.966000000     0.257000000    -3.251000000
O     1.510000000     2.326000000    -2.735000000
