14
-86.78797
C    -1.238000000    -0.568000000    -0.632000000
H    -2.189000000    -0.950000000    -0.994000000
C    -1.008000000    -0.477000000     0.733000000
H    -1.695000000    -0.831000000     1.497000000
C     0.226000000    -0.060000000     1.216000000
H     0.462000000    -0.095000000     2.290000000
C     1.195000000     0.384000000     0.337000000
H     2.141000000     0.767000000     0.711000000
C     0.890000000     0.412000000    -1.019000000
H     1.586000000     0.684000000    -1.808000000
C    -0.277000000    -0.155000000    -1.492000000
C    -0.467000000    -0.044000000    -2.979000000
O     0.434000000     0.148000000    -3.735000000
O    -1.607000000    -0.203000000    -3.402000000
