14
-75.97059
C    -0.790000000     0.125000000    -1.306000000
H    -1.412000000     0.189000000    -2.195000000
C    -1.338000000    -0.147000000    -0.055000000
H    -2.393000000    -0.283000000     0.170000000
C    -0.489000000    -0.215000000     1.080000000
H    -0.920000000    -0.412000000     2.056000000
C     0.869000000    -0.145000000     0.942000000
H     1.520000000    -0.265000000     1.804000000
C     1.362000000     0.112000000    -0.288000000
H     2.443000000     0.112000000    -0.405000000
C     0.571000000     0.368000000    -1.403000000
C     1.273000000     0.450000000    -2.764000000
O     0.612000000     0.448000000    -3.723000000
O     2.438000000     0.543000000    -2.821000000
