14
-89.75524
C    -0.236000000    -0.215000000    -1.396000000
H    -0.586000000    -0.472000000    -2.393000000
C    -1.261000000    -0.152000000    -0.483000000
H    -2.277000000    -0.428000000    -0.753000000
C    -0.926000000     0.055000000     0.848000000
H    -1.737000000     0.219000000     1.569000000
C     0.407000000     0.260000000     1.178000000
H     0.733000000     0.528000000     2.180000000
C     1.433000000     0.239000000     0.209000000
H     2.463000000     0.485000000     0.452000000
C     1.146000000     0.017000000    -1.114000000
C     2.191000000     0.030000000    -2.229000000
O     1.774000000    -0.147000000    -3.373000000
O     3.371000000     0.046000000    -1.975000000
