14
-91.55039
C    -0.385000000    -0.771000000    -1.237000000
H    -0.650000000    -1.473000000    -2.024000000
C    -1.038000000    -0.835000000     0.046000000
H    -1.936000000    -1.439000000     0.146000000
C    -0.633000000    -0.008000000     1.043000000
H    -0.978000000    -0.008000000     2.025000000
C     0.494000000     0.794000000     0.891000000
H     0.849000000     1.350000000     1.755000000
C     1.127000000     0.882000000    -0.329000000
H     2.038000000     1.456000000    -0.476000000
C     0.689000000     0.101000000    -1.424000000
C     1.490000000     0.053000000    -2.749000000
O     1.265000000    -0.871000000    -3.531000000
O     2.457000000     0.801000000    -2.902000000
