14
-89.57385
C    -0.641000000    -0.896000000    -0.961000000
H    -1.200000000    -1.685000000    -1.457000000
C    -0.874000000    -0.791000000     0.385000000
H    -1.641000000    -1.385000000     0.875000000
C    -0.195000000     0.090000000     1.216000000
H    -0.608000000     0.116000000     2.309000000
C     0.799000000     0.897000000     0.667000000
H     1.298000000     1.587000000     1.343000000
C     1.081000000     0.767000000    -0.718000000
H     1.954000000     1.304000000    -1.078000000
C     0.353000000    -0.093000000    -1.549000000
C     0.623000000    -0.137000000    -3.031000000
O     0.023000000    -0.945000000    -3.763000000
O     1.412000000     0.670000000    -3.481000000
