14
-86.90079
C    -1.272000000     0.348000000    -0.685000000
H    -2.283000000     0.459000000    -1.068000000
C    -1.044000000     0.506000000     0.679000000
H    -1.837000000     0.997000000     1.237000000
C     0.181000000     0.105000000     1.200000000
H     0.276000000     0.182000000     2.297000000
C     1.209000000    -0.404000000     0.363000000
H     2.185000000    -0.636000000     0.781000000
C     0.994000000    -0.479000000    -0.996000000
H     1.767000000    -0.874000000    -1.651000000
C    -0.230000000     0.007000000    -1.521000000
C    -0.384000000    -0.093000000    -3.004000000
O     0.543000000    -0.114000000    -3.832000000
O    -1.513000000    -0.037000000    -3.503000000
