14
-89.83426
C    -0.300000000    -0.870000000    -1.114000000
H    -0.630000000    -1.705000000    -1.726000000
C    -0.917000000    -0.806000000     0.124000000
H    -1.701000000    -1.511000000     0.388000000
C    -0.490000000     0.050000000     1.088000000
H    -0.978000000     0.026000000     2.069000000
C     0.537000000     0.920000000     0.826000000
H     0.793000000     1.628000000     1.610000000
C     1.174000000     0.957000000    -0.409000000
H     2.000000000     1.647000000    -0.561000000
C     0.787000000     0.037000000    -1.415000000
C     1.416000000    -0.125000000    -2.745000000
O     0.796000000    -0.684000000    -3.657000000
O     2.509000000     0.403000000    -2.879000000
