14
-89.98905
C    -1.349000000     0.206000000    -0.368000000
H    -2.407000000     0.219000000    -0.615000000
C    -0.861000000    -0.896000000     0.265000000
H    -1.551000000    -1.714000000     0.457000000
C     0.489000000    -0.992000000     0.604000000
H     0.776000000    -1.841000000     1.183000000
C     1.340000000     0.154000000     0.346000000
H     2.411000000     0.079000000     0.519000000
C     0.773000000     1.265000000    -0.320000000
H     1.404000000     2.102000000    -0.608000000
C    -0.558000000     1.315000000    -0.708000000
C    -1.085000000     2.458000000    -1.477000000
O    -2.184000000     2.320000000    -2.117000000
O    -0.513000000     3.548000000    -1.522000000
