14
-87.21051
C    -1.234000000    -0.294000000    -0.784000000
H    -2.198000000    -0.388000000    -1.277000000
C    -1.194000000     0.009000000     0.570000000
H    -2.075000000     0.118000000     1.197000000
C    -0.039000000     0.192000000     1.239000000
H     0.032000000     0.353000000     2.351000000
C     1.192000000     0.159000000     0.454000000
H     2.130000000     0.326000000     0.978000000
C     1.185000000    -0.077000000    -0.931000000
H     2.100000000    -0.032000000    -1.517000000
C    -0.037000000    -0.343000000    -1.546000000
C    -0.070000000    -0.616000000    -3.027000000
O     0.913000000    -0.320000000    -3.674000000
O    -1.026000000    -1.114000000    -3.561000000
