14
-83.97990
C    -1.040000000    -0.890000000    -0.705000000
H    -1.904000000    -1.448000000    -1.058000000
C    -0.684000000    -0.973000000     0.682000000
H    -1.240000000    -1.583000000     1.389000000
C     0.285000000    -0.134000000     1.203000000
H     0.499000000    -0.210000000     2.294000000
C     0.838000000     0.919000000     0.349000000
H     1.545000000     1.627000000     0.775000000
C     0.531000000     0.963000000    -0.979000000
H     0.944000000     1.735000000    -1.622000000
C    -0.416000000     0.105000000    -1.539000000
C    -0.692000000     0.246000000    -2.949000000
O    -1.699000000    -0.205000000    -3.446000000
O     0.172000000     0.765000000    -3.649000000
