14
-73.65995
C    -0.211000000     0.473000000    -1.330000000
H    -0.174000000     0.695000000    -2.393000000
C     0.026000000    -0.873000000    -0.949000000
H     0.073000000    -1.705000000    -1.648000000
C     0.241000000    -1.124000000     0.398000000
H     0.680000000    -2.074000000     0.656000000
C     0.048000000    -0.128000000     1.327000000
H     0.232000000    -0.407000000     2.361000000
C    -0.290000000     1.171000000     0.878000000
H    -0.338000000     2.015000000     1.561000000
C    -0.357000000     1.506000000    -0.433000000
C    -0.511000000     2.891000000    -0.920000000
O    -0.502000000     3.062000000    -2.084000000
O    -0.769000000     3.782000000    -0.203000000
