14
-78.98615
C    -1.027000000    -0.728000000    -0.799000000
H    -1.809000000    -1.222000000    -1.370000000
C    -1.039000000    -0.629000000     0.626000000
H    -1.747000000    -1.187000000     1.232000000
C     0.006000000     0.113000000     1.250000000
H     0.066000000     0.211000000     2.344000000
C     1.052000000     0.599000000     0.493000000
H     1.934000000     0.986000000     0.996000000
C     1.072000000     0.430000000    -0.837000000
H     1.820000000     0.863000000    -1.497000000
C    -0.008000000    -0.123000000    -1.533000000
C    -0.045000000    -0.072000000    -3.074000000
O    -0.865000000    -0.729000000    -3.665000000
O     0.847000000     0.366000000    -3.717000000
