14
-85.84955
C    -1.373000000    -0.017000000    -0.697000000
H    -2.387000000     0.079000000    -1.076000000
C    -1.188000000    -0.005000000     0.681000000
H    -2.010000000     0.036000000     1.390000000
C     0.105000000    -0.070000000     1.187000000
H     0.251000000    -0.072000000     2.259000000
C     1.175000000    -0.010000000     0.389000000
H     2.158000000    -0.022000000     0.852000000
C     1.037000000     0.042000000    -1.006000000
H     1.970000000     0.024000000    -1.562000000
C    -0.235000000    -0.011000000    -1.568000000
C    -0.318000000     0.114000000    -3.045000000
O     0.520000000     0.702000000    -3.748000000
O    -1.321000000    -0.282000000    -3.592000000
