14
-83.91419
C     0.416000000     0.266000000    -1.349000000
H     0.826000000     0.260000000    -2.356000000
C     0.682000000    -0.918000000    -0.697000000
H     1.268000000    -1.705000000    -1.165000000
C     0.141000000    -1.069000000     0.623000000
H     0.223000000    -2.002000000     1.027000000
C    -0.519000000     0.023000000     1.222000000
H    -0.873000000    -0.202000000     2.225000000
C    -0.703000000     1.272000000     0.546000000
H    -1.095000000     2.139000000     1.072000000
C    -0.255000000     1.348000000    -0.816000000
C    -0.523000000     2.538000000    -1.645000000
O    -0.028000000     2.633000000    -2.755000000
O    -1.148000000     3.475000000    -1.200000000
