14
-83.71892
C    -0.063000000     0.884000000    -1.232000000
H    -0.043000000     1.459000000    -2.154000000
C     0.730000000    -0.227000000    -1.115000000
H     1.414000000    -0.516000000    -1.909000000
C     0.717000000    -0.888000000     0.081000000
H     1.484000000    -1.807000000     0.117000000
C    -0.066000000    -0.557000000     1.225000000
H     0.092000000    -1.073000000     2.169000000
C    -0.976000000     0.453000000     1.039000000
H    -1.599000000     0.754000000     1.877000000
C    -0.965000000     1.240000000    -0.143000000
C    -2.145000000     2.158000000    -0.320000000
O    -2.587000000     2.335000000    -1.454000000
O    -2.594000000     2.740000000     0.653000000
