14
-78.18238
C    -1.370000000     0.108000000    -0.595000000
H    -2.364000000     0.067000000    -1.033000000
C    -0.212000000    -0.425000000    -1.150000000
H    -0.314000000    -0.930000000    -2.107000000
C     1.029000000    -0.470000000    -0.496000000
H     1.881000000    -0.983000000    -0.958000000
C     1.163000000     0.152000000     0.667000000
H     2.149000000     0.169000000     1.124000000
C    -0.009000000     0.748000000     1.313000000
H     0.051000000     1.095000000     2.341000000
C    -1.241000000     0.670000000     0.660000000
C    -2.461000000     1.202000000     1.323000000
O    -3.570000000     0.798000000     1.016000000
O    -2.411000000     1.739000000     2.413000000
