14
-86.74065
C    -0.140000000     0.504000000     1.361000000
H    -0.462000000     0.873000000     2.332000000
C    -1.072000000    -0.295000000     0.675000000
H    -2.039000000    -0.557000000     1.097000000
C    -0.744000000    -0.834000000    -0.538000000
H    -1.407000000    -1.570000000    -1.032000000
C     0.527000000    -0.505000000    -1.068000000
H     0.803000000    -0.878000000    -2.051000000
C     1.332000000     0.425000000    -0.465000000
H     2.258000000     0.679000000    -0.975000000
C     1.036000000     0.945000000     0.786000000
C     1.805000000     2.030000000     1.420000000
O     1.242000000     2.862000000     2.127000000
O     2.949000000     2.219000000     1.086000000
