14
-79.17075
C    -1.320000000     0.247000000     0.565000000
H    -2.404000000     0.289000000     0.633000000
C    -0.748000000    -1.009000000     0.385000000
H    -1.305000000    -1.940000000     0.443000000
C     0.521000000    -1.104000000    -0.178000000
H     0.964000000    -2.092000000    -0.316000000
C     1.240000000     0.038000000    -0.464000000
H     2.264000000     0.054000000    -0.827000000
C     0.767000000     1.295000000    -0.050000000
H     1.311000000     2.214000000    -0.254000000
C    -0.569000000     1.438000000     0.391000000
C    -1.219000000     2.718000000     0.695000000
O    -2.303000000     2.781000000     1.228000000
O    -0.663000000     3.786000000     0.570000000
