14
-85.58727
C    -1.489000000     0.207000000     0.114000000
H    -2.567000000     0.203000000    -0.029000000
C    -0.835000000    -0.898000000    -0.514000000
H    -1.410000000    -1.650000000    -1.048000000
C     0.570000000    -0.968000000    -0.497000000
H     1.080000000    -1.837000000    -0.916000000
C     1.303000000    -0.061000000     0.216000000
H     2.356000000    -0.330000000     0.207000000
C     0.699000000     1.041000000     0.841000000
H     1.295000000     1.734000000     1.430000000
C    -0.704000000     1.272000000     0.727000000
C    -1.291000000     2.580000000     1.156000000
O    -2.513000000     2.678000000     1.173000000
O    -0.606000000     3.510000000     1.552000000
