14
-86.93585
C    -1.077000000    -0.508000000    -0.847000000
H    -1.850000000    -1.070000000    -1.365000000
C    -1.043000000    -0.442000000     0.500000000
H    -1.948000000    -0.679000000     1.054000000
C    -0.001000000     0.061000000     1.236000000
H    -0.024000000     0.128000000     2.318000000
C     1.108000000     0.439000000     0.533000000
H     1.950000000     0.894000000     1.048000000
C     1.095000000     0.361000000    -0.866000000
H     2.045000000     0.573000000    -1.350000000
C     0.023000000    -0.055000000    -1.538000000
C     0.048000000    -0.158000000    -3.090000000
O     1.000000000     0.319000000    -3.689000000
O    -0.951000000    -0.581000000    -3.668000000
