14
-74.67967
C    -0.329000000     1.015000000     0.949000000
H    -0.849000000     1.716000000     1.596000000
C    -1.213000000     0.149000000     0.397000000
H    -2.288000000     0.248000000     0.525000000
C    -0.800000000    -0.795000000    -0.480000000
H    -1.476000000    -1.549000000    -0.956000000
C     0.563000000    -0.894000000    -0.817000000
H     0.861000000    -1.730000000    -1.445000000
C     1.540000000    -0.054000000    -0.158000000
H     2.582000000    -0.117000000    -0.458000000
C     1.046000000     0.988000000     0.685000000
C     2.028000000     2.039000000     1.159000000
O     1.722000000     3.009000000     1.921000000
O     3.158000000     1.869000000     0.961000000
