14
-84.55131
C     1.218000000    -0.279000000     0.770000000
H     2.218000000    -0.402000000     1.179000000
C     0.990000000     0.905000000    -0.024000000
H     1.752000000     1.666000000    -0.169000000
C    -0.217000000     0.991000000    -0.652000000
H    -0.432000000     1.840000000    -1.327000000
C    -1.185000000     0.025000000    -0.446000000
H    -2.131000000     0.181000000    -0.960000000
C    -0.959000000    -1.101000000     0.281000000
H    -1.754000000    -1.839000000     0.205000000
C     0.257000000    -1.299000000     0.917000000
C     0.532000000    -2.555000000     1.743000000
O     1.503000000    -2.539000000     2.423000000
O    -0.184000000    -3.480000000     1.568000000
