14
-86.24218
C     0.480000000    -0.078000000     1.346000000
H     0.783000000    -0.040000000     2.389000000
C     0.251000000     1.082000000     0.652000000
H     0.462000000     2.025000000     1.150000000
C    -0.232000000     1.048000000    -0.652000000
H    -0.417000000     1.988000000    -1.246000000
C    -0.459000000    -0.238000000    -1.292000000
H    -0.674000000    -0.404000000    -2.344000000
C    -0.238000000    -1.399000000    -0.573000000
H    -0.453000000    -2.365000000    -1.025000000
C     0.254000000    -1.336000000     0.765000000
C     0.535000000    -2.642000000     1.517000000
O     0.799000000    -2.599000000     2.703000000
O     0.643000000    -3.722000000     0.976000000
