14
-87.80718
C     0.882000000    -0.463000000     1.122000000
H     1.415000000    -0.730000000     2.031000000
C     0.962000000     0.793000000     0.567000000
H     1.567000000     1.523000000     1.099000000
C     0.133000000     1.112000000    -0.524000000
H     0.174000000     2.070000000    -1.017000000
C    -0.742000000     0.127000000    -1.008000000
H    -1.349000000     0.441000000    -1.853000000
C    -0.824000000    -1.145000000    -0.484000000
H    -1.486000000    -1.847000000    -0.983000000
C    -0.018000000    -1.435000000     0.570000000
C    -0.119000000    -2.794000000     1.142000000
O     0.715000000    -3.251000000     1.897000000
O    -1.048000000    -3.512000000     0.793000000
