14
-86.78755
C     0.913000000    -0.414000000     1.144000000
H     1.724000000    -0.604000000     1.842000000
C     0.900000000     0.861000000     0.533000000
H     1.568000000     1.591000000     0.983000000
C    -0.041000000     1.129000000    -0.438000000
H    -0.095000000     2.167000000    -0.937000000
C    -0.899000000     0.180000000    -0.941000000
H    -1.567000000     0.408000000    -1.767000000
C    -0.835000000    -1.127000000    -0.441000000
H    -1.509000000    -1.882000000    -0.839000000
C     0.132000000    -1.436000000     0.579000000
C     0.121000000    -2.807000000     1.260000000
O     0.377000000    -2.897000000     2.422000000
O    -0.038000000    -3.791000000     0.554000000
