14
-84.13491
C     1.178000000     0.019000000     0.864000000
H     1.973000000     0.262000000     1.565000000
C     0.617000000     1.143000000     0.234000000
H     1.123000000     2.105000000     0.254000000
C    -0.543000000     0.957000000    -0.553000000
H    -1.025000000     1.872000000    -1.100000000
C    -1.039000000    -0.313000000    -0.730000000
H    -1.910000000    -0.350000000    -1.379000000
C    -0.530000000    -1.414000000    -0.092000000
H    -0.942000000    -2.418000000    -0.156000000
C     0.563000000    -1.249000000     0.800000000
C     1.235000000    -2.496000000     1.421000000
O     1.978000000    -2.479000000     2.418000000
O     0.957000000    -3.574000000     0.971000000
