14
-88.11113
C     0.255000000    -0.356000000     1.402000000
H     0.580000000    -0.504000000     2.428000000
C     0.492000000     0.869000000     0.867000000
H     1.002000000     1.611000000     1.477000000
C     0.257000000     1.076000000    -0.490000000
H     0.570000000     2.006000000    -0.986000000
C    -0.292000000     0.069000000    -1.278000000
H    -0.484000000     0.203000000    -2.339000000
C    -0.653000000    -1.116000000    -0.703000000
H    -1.025000000    -1.899000000    -1.359000000
C    -0.392000000    -1.385000000     0.674000000
C    -0.665000000    -2.666000000     1.269000000
O    -0.672000000    -2.721000000     2.509000000
O    -0.922000000    -3.672000000     0.614000000
