14
-87.69685
C     0.062000000    -1.349000000     0.546000000
H     0.115000000    -2.335000000     1.000000000
C    -1.087000000    -0.530000000     0.432000000
H    -2.041000000    -0.879000000     0.818000000
C    -1.036000000     0.708000000    -0.147000000
H    -1.970000000     1.290000000    -0.313000000
C     0.168000000     1.261000000    -0.543000000
H     0.245000000     2.261000000    -0.961000000
C     1.284000000     0.395000000    -0.487000000
H     2.255000000     0.696000000    -0.873000000
C     1.273000000    -0.843000000     0.088000000
C     2.573000000    -1.658000000     0.357000000
O     3.676000000    -1.194000000     0.142000000
O     2.529000000    -2.721000000     0.980000000
