14
-90.47202
C     0.782000000    -0.787000000     0.984000000
H     1.297000000    -1.298000000     1.793000000
C     1.376000000    -0.046000000    -0.048000000
H     2.456000000     0.049000000    -0.130000000
C     0.541000000     0.671000000    -0.903000000
H     1.011000000     1.274000000    -1.635000000
C    -0.818000000     0.634000000    -0.687000000
H    -1.421000000     1.202000000    -1.392000000
C    -1.418000000    -0.097000000     0.332000000
H    -2.504000000    -0.090000000     0.355000000
C    -0.590000000    -0.863000000     1.191000000
C    -1.295000000    -1.774000000     2.215000000
O    -0.616000000    -2.481000000     2.921000000
O    -2.545000000    -1.851000000     2.258000000
