14
-87.10628
C     1.426000000    -0.340000000     0.577000000
H     2.465000000    -0.384000000     0.895000000
C     1.177000000     0.246000000    -0.711000000
H     1.955000000     0.712000000    -1.311000000
C    -0.176000000     0.502000000    -1.122000000
H    -0.325000000     1.221000000    -1.953000000
C    -1.187000000     0.031000000    -0.387000000
H    -2.195000000     0.246000000    -0.730000000
C    -0.972000000    -0.605000000     0.853000000
H    -1.814000000    -0.812000000     1.510000000
C     0.339000000    -0.900000000     1.335000000
C     0.459000000    -1.533000000     2.718000000
O     1.540000000    -1.992000000     3.084000000
O    -0.578000000    -1.653000000     3.384000000
