14
-88.66889
C     0.192000000     1.350000000     0.664000000
H     0.434000000     2.307000000     1.120000000
C     0.588000000     1.052000000    -0.660000000
H     1.011000000     1.793000000    -1.334000000
C     0.372000000    -0.249000000    -1.135000000
H     0.534000000    -0.480000000    -2.231000000
C    -0.216000000    -1.229000000    -0.326000000
H    -0.418000000    -2.176000000    -0.821000000
C    -0.673000000    -0.897000000     0.939000000
H    -1.155000000    -1.666000000     1.537000000
C    -0.447000000     0.333000000     1.484000000
C    -0.856000000     0.586000000     2.900000000
O    -0.566000000     1.636000000     3.419000000
O    -1.376000000    -0.305000000     3.558000000
