14
-84.32120
C     1.162000000     0.774000000     0.605000000
H     1.997000000     1.388000000     0.931000000
C     0.936000000     0.495000000    -0.755000000
H     1.607000000     0.871000000    -1.523000000
C    -0.200000000    -0.172000000    -1.198000000
H    -0.383000000    -0.173000000    -2.270000000
C    -1.014000000    -0.767000000    -0.246000000
H    -1.931000000    -1.271000000    -0.542000000
C    -0.669000000    -0.637000000     1.106000000
H    -1.398000000    -1.101000000     1.765000000
C     0.364000000     0.184000000     1.518000000
C     0.479000000     0.496000000     3.022000000
O     1.331000000     1.193000000     3.483000000
O    -0.340000000     0.019000000     3.764000000
