14
-83.15607
C     1.329000000    -0.641000000     0.258000000
H     2.383000000    -0.875000000     0.385000000
C     0.979000000     0.021000000    -0.912000000
H     1.694000000     0.129000000    -1.724000000
C    -0.326000000     0.503000000    -1.090000000
H    -0.601000000     1.160000000    -1.896000000
C    -1.281000000     0.370000000    -0.102000000
H    -2.233000000     0.888000000    -0.190000000
C    -0.873000000    -0.123000000     1.161000000
H    -1.603000000    -0.202000000     1.963000000
C     0.432000000    -0.753000000     1.337000000
C     0.702000000    -1.493000000     2.633000000
O     1.572000000    -2.356000000     2.558000000
O     0.187000000    -1.263000000     3.680000000
