14
-83.46798
C    -1.303000000     0.409000000     0.470000000
H    -2.204000000     0.682000000     1.013000000
C    -0.197000000     0.146000000     1.242000000
H    -0.281000000     0.343000000     2.308000000
C     1.026000000    -0.233000000     0.668000000
H     1.836000000    -0.362000000     1.311000000
C     1.122000000    -0.374000000    -0.714000000
H     2.077000000    -0.637000000    -1.161000000
C    -0.032000000    -0.176000000    -1.488000000
H    -0.055000000    -0.307000000    -2.566000000
C    -1.238000000     0.221000000    -0.884000000
C    -2.485000000     0.357000000    -1.728000000
O    -2.469000000     0.544000000    -2.934000000
O    -3.481000000     0.335000000    -1.135000000
