14
-88.17708
C     0.674000000     1.274000000     0.358000000
H     1.079000000     2.274000000     0.491000000
C     0.088000000     0.920000000    -0.866000000
H     0.275000000     1.643000000    -1.656000000
C    -0.475000000    -0.314000000    -1.081000000
H    -0.949000000    -0.495000000    -2.069000000
C    -0.681000000    -1.207000000    -0.020000000
H    -1.180000000    -2.152000000    -0.218000000
C    -0.128000000    -0.905000000     1.204000000
H    -0.326000000    -1.552000000     2.055000000
C     0.545000000     0.377000000     1.403000000
C     1.213000000     0.703000000     2.720000000
O     2.055000000     1.581000000     2.727000000
O     0.896000000     0.151000000     3.744000000
