14
-90.01671
C     0.684000000     1.240000000     0.459000000
H     1.047000000     2.237000000     0.698000000
C    -0.055000000     1.089000000    -0.740000000
H    -0.238000000     1.929000000    -1.405000000
C    -0.628000000    -0.160000000    -1.042000000
H    -1.243000000    -0.359000000    -1.935000000
C    -0.587000000    -1.240000000    -0.144000000
H    -1.121000000    -2.164000000    -0.346000000
C     0.181000000    -1.112000000     1.024000000
H     0.135000000    -1.964000000     1.697000000
C     0.847000000     0.118000000     1.276000000
C     1.571000000     0.383000000     2.590000000
O     1.720000000     1.536000000     2.974000000
O     1.952000000    -0.543000000     3.266000000
