14
-86.40897
C     1.177000000    -0.676000000     0.646000000
H     2.046000000    -1.305000000     0.823000000
C     1.048000000    -0.356000000    -0.717000000
H     1.848000000    -0.670000000    -1.383000000
C    -0.096000000     0.259000000    -1.202000000
H    -0.218000000     0.469000000    -2.274000000
C    -1.087000000     0.613000000    -0.273000000
H    -1.877000000     1.256000000    -0.653000000
C    -0.992000000     0.286000000     1.052000000
H    -1.739000000     0.582000000     1.786000000
C     0.183000000    -0.287000000     1.558000000
C     0.229000000    -0.612000000     3.051000000
O     1.186000000    -1.212000000     3.499000000
O    -0.639000000    -0.272000000     3.799000000
