14
-83.56494
C     0.559000000    -1.337000000     0.455000000
H     0.989000000    -2.307000000     0.694000000
C     1.104000000    -0.541000000    -0.571000000
H     1.962000000    -0.886000000    -1.143000000
C     0.434000000     0.583000000    -0.948000000
H     0.770000000     1.237000000    -1.797000000
C    -0.667000000     1.070000000    -0.326000000
H    -1.107000000     2.041000000    -0.535000000
C    -1.251000000     0.353000000     0.703000000
H    -2.160000000     0.802000000     1.096000000
C    -0.678000000    -0.894000000     1.122000000
C    -1.245000000    -1.636000000     2.257000000
O    -0.571000000    -2.414000000     2.930000000
O    -2.406000000    -1.425000000     2.580000000
