14
-89.32662
C     0.268000000    -1.293000000     0.681000000
H     0.443000000    -2.289000000     1.080000000
C     0.947000000    -0.825000000    -0.417000000
H     1.739000000    -1.442000000    -0.834000000
C     0.606000000     0.428000000    -0.988000000
H     1.174000000     0.897000000    -1.838000000
C    -0.479000000     1.163000000    -0.436000000
H    -0.751000000     2.118000000    -0.880000000
C    -1.192000000     0.678000000     0.668000000
H    -2.142000000     1.138000000     0.928000000
C    -0.804000000    -0.510000000     1.249000000
C    -1.538000000    -1.139000000     2.440000000
O    -0.956000000    -1.854000000     3.263000000
O    -2.639000000    -0.671000000     2.742000000
