14
-83.64351
C    -1.398000000     0.251000000     0.417000000
H    -2.353000000     0.380000000     0.919000000
C    -0.235000000     0.486000000     1.138000000
H    -0.262000000     0.773000000     2.186000000
C     0.990000000     0.235000000     0.666000000
H     1.810000000     0.414000000     1.295000000
C     1.094000000    -0.137000000    -0.717000000
H     2.099000000    -0.326000000    -1.085000000
C    -0.015000000    -0.323000000    -1.491000000
H     0.119000000    -0.685000000    -2.507000000
C    -1.308000000    -0.210000000    -0.930000000
C    -2.506000000    -0.608000000    -1.603000000
O    -2.483000000    -0.887000000    -2.820000000
O    -3.531000000    -0.652000000    -0.976000000
