14
-86.27808
C    -0.064000000    -0.892000000     1.228000000
H     0.058000000    -1.412000000     2.175000000
C     1.030000000    -0.546000000     0.455000000
H     1.958000000    -0.953000000     0.848000000
C     0.963000000     0.189000000    -0.694000000
H     1.899000000     0.490000000    -1.211000000
C    -0.243000000     0.716000000    -1.074000000
H    -0.183000000     1.330000000    -1.969000000
C    -1.397000000     0.364000000    -0.351000000
H    -2.327000000     0.788000000    -0.718000000
C    -1.320000000    -0.363000000     0.839000000
C    -2.517000000    -0.575000000     1.652000000
O    -2.521000000    -1.483000000     2.462000000
O    -3.326000000     0.334000000     1.636000000
