14
-81.95595
C     0.503000000    -0.499000000     1.285000000
H     0.903000000    -0.977000000     2.176000000
C     1.209000000    -0.379000000     0.048000000
H     2.130000000    -0.936000000    -0.106000000
C     0.723000000     0.303000000    -1.036000000
H     1.199000000     0.319000000    -2.021000000
C    -0.579000000     0.787000000    -0.882000000
H    -1.022000000     1.212000000    -1.779000000
C    -1.390000000     0.556000000     0.272000000
H    -2.434000000     0.857000000     0.242000000
C    -0.871000000    -0.121000000     1.361000000
C    -1.666000000    -0.444000000     2.610000000
O    -1.151000000    -1.081000000     3.491000000
O    -2.890000000    -0.452000000     2.497000000
