14
-85.73879
C     0.779000000    -0.632000000     1.073000000
H     1.331000000    -1.167000000     1.842000000
C     1.289000000    -0.304000000    -0.194000000
H     2.365000000    -0.359000000    -0.335000000
C     0.435000000     0.308000000    -1.076000000
H     0.709000000     0.660000000    -2.015000000
C    -0.968000000     0.485000000    -0.788000000
H    -1.632000000     0.839000000    -1.572000000
C    -1.468000000     0.131000000     0.461000000
H    -2.515000000     0.281000000     0.709000000
C    -0.563000000    -0.385000000     1.392000000
C    -1.047000000    -0.575000000     2.773000000
O    -0.324000000    -1.104000000     3.615000000
O    -2.112000000    -0.159000000     3.094000000
