14
-89.67469
C     0.603000000    -0.207000000     1.371000000
H     1.058000000    -0.191000000     2.358000000
C     1.305000000     0.050000000     0.189000000
H     2.386000000     0.153000000     0.155000000
C     0.645000000     0.122000000    -1.022000000
H     1.156000000     0.318000000    -1.912000000
C    -0.717000000    -0.044000000    -1.130000000
H    -1.252000000     0.108000000    -2.064000000
C    -1.398000000    -0.339000000     0.040000000
H    -2.481000000    -0.438000000     0.024000000
C    -0.748000000    -0.419000000     1.267000000
C    -1.602000000    -0.569000000     2.517000000
O    -1.106000000    -0.438000000     3.656000000
O    -2.814000000    -0.768000000     2.493000000
