14
-82.87728
C     0.135000000    -0.356000000     1.485000000
H     0.422000000    -0.448000000     2.530000000
C     0.956000000    -0.873000000     0.478000000
H     1.848000000    -1.465000000     0.664000000
C     0.737000000    -0.459000000    -0.826000000
H     1.409000000    -0.742000000    -1.590000000
C    -0.321000000     0.320000000    -1.188000000
H    -0.464000000     0.576000000    -2.235000000
C    -1.152000000     0.709000000    -0.196000000
H    -1.906000000     1.386000000    -0.588000000
C    -0.923000000     0.585000000     1.139000000
C    -1.849000000     1.124000000     2.212000000
O    -1.613000000     0.900000000     3.401000000
O    -2.878000000     1.734000000     1.905000000
