14
-86.33853
C     0.295000000    -0.866000000     1.233000000
H     0.635000000    -1.509000000     2.041000000
C     0.358000000    -1.240000000    -0.108000000
H     0.798000000    -2.212000000    -0.315000000
C    -0.068000000    -0.416000000    -1.150000000
H    -0.136000000    -0.708000000    -2.208000000
C    -0.424000000     0.864000000    -0.894000000
H    -0.772000000     1.485000000    -1.715000000
C    -0.394000000     1.331000000     0.419000000
H    -0.632000000     2.375000000     0.605000000
C     0.007000000     0.504000000     1.524000000
C    -0.068000000     0.978000000     2.938000000
O     0.287000000     0.233000000     3.799000000
O    -0.457000000     2.108000000     3.216000000
