14
-91.09872
C     0.730000000    -0.152000000     1.290000000
H     1.335000000    -0.058000000     2.188000000
C     1.318000000     0.047000000     0.062000000
H     2.371000000     0.285000000    -0.069000000
C     0.562000000     0.210000000    -1.095000000
H     0.944000000     0.597000000    -2.048000000
C    -0.859000000    -0.044000000    -0.967000000
H    -1.472000000     0.009000000    -1.864000000
C    -1.429000000    -0.342000000     0.262000000
H    -2.484000000    -0.576000000     0.377000000
C    -0.617000000    -0.350000000     1.392000000
C    -1.257000000    -0.481000000     2.737000000
O    -0.544000000    -0.428000000     3.707000000
O    -2.475000000    -0.647000000     2.741000000
