14
-85.17488
C     0.737000000    -0.749000000     1.031000000
H     1.371000000    -1.291000000     1.728000000
C     1.180000000    -0.453000000    -0.252000000
H     2.194000000    -0.755000000    -0.502000000
C     0.351000000     0.125000000    -1.161000000
H     0.762000000     0.238000000    -2.184000000
C    -0.916000000     0.426000000    -0.784000000
H    -1.645000000     0.781000000    -1.508000000
C    -1.362000000     0.208000000     0.512000000
H    -2.377000000     0.513000000     0.754000000
C    -0.470000000    -0.298000000     1.487000000
C    -0.832000000    -0.323000000     2.967000000
O     0.033000000    -0.290000000     3.757000000
O    -2.034000000    -0.107000000     3.254000000
