14
-92.52147
C     1.290000000     0.287000000     0.625000000
H     2.219000000     0.438000000     1.169000000
C     0.993000000    -0.811000000    -0.180000000
H     1.690000000    -1.645000000    -0.178000000
C    -0.297000000    -0.920000000    -0.781000000
H    -0.480000000    -1.822000000    -1.368000000
C    -1.222000000     0.087000000    -0.647000000
H    -2.191000000     0.103000000    -1.141000000
C    -0.920000000     1.116000000     0.248000000
H    -1.659000000     1.909000000     0.323000000
C     0.287000000     1.277000000     0.888000000
C     0.608000000     2.438000000     1.830000000
O     1.549000000     2.325000000     2.624000000
O    -0.123000000     3.408000000     1.844000000
