14
-85.77105
C     1.114000000     0.122000000     0.884000000
H     1.994000000     0.087000000     1.522000000
C     1.005000000    -0.791000000    -0.126000000
H     1.853000000    -1.435000000    -0.345000000
C    -0.154000000    -0.798000000    -0.918000000
H    -0.167000000    -1.522000000    -1.736000000
C    -1.195000000     0.078000000    -0.623000000
H    -2.139000000    -0.025000000    -1.152000000
C    -0.995000000     1.049000000     0.355000000
H    -1.815000000     1.731000000     0.566000000
C     0.101000000     1.064000000     1.169000000
C     0.243000000     2.040000000     2.273000000
O     1.259000000     2.040000000     2.906000000
O    -0.656000000     2.768000000     2.524000000
