14
-80.45737
C     0.966000000     0.803000000     0.560000000
H     1.823000000     1.410000000     0.842000000
C     1.210000000    -0.364000000    -0.167000000
H     2.262000000    -0.581000000    -0.336000000
C     0.099000000    -1.091000000    -0.670000000
H     0.196000000    -1.848000000    -1.376000000
C    -1.186000000    -0.679000000    -0.324000000
H    -2.062000000    -1.079000000    -0.827000000
C    -1.367000000     0.509000000     0.439000000
H    -2.352000000     0.897000000     0.685000000
C    -0.259000000     1.226000000     0.949000000
C    -0.300000000     2.400000000     1.873000000
O     0.656000000     3.093000000     2.179000000
O    -1.390000000     2.797000000     2.164000000
