14
-85.79873
C     1.435000000     0.251000000     0.186000000
H     2.510000000     0.366000000     0.298000000
C     0.843000000    -0.605000000    -0.718000000
H     1.474000000    -1.278000000    -1.292000000
C    -0.570000000    -0.771000000    -0.800000000
H    -1.034000000    -1.567000000    -1.408000000
C    -1.399000000     0.010000000    -0.036000000
H    -2.473000000    -0.128000000    -0.135000000
C    -0.853000000     0.884000000     0.914000000
H    -1.498000000     1.443000000     1.588000000
C     0.573000000     1.036000000     0.985000000
C     1.233000000     1.923000000     2.043000000
O     2.411000000     1.814000000     2.267000000
O     0.510000000     2.437000000     2.856000000
