14
-87.40813
C    -1.316000000     0.281000000     0.644000000
H    -2.211000000     0.648000000     1.141000000
C    -0.074000000     0.869000000     1.001000000
H     0.017000000     1.662000000     1.738000000
C     1.084000000     0.463000000     0.382000000
H     2.066000000     0.914000000     0.602000000
C     1.042000000    -0.542000000    -0.593000000
H     2.002000000    -0.790000000    -1.037000000
C    -0.231000000    -1.093000000    -0.933000000
H    -0.242000000    -1.922000000    -1.637000000
C    -1.442000000    -0.717000000    -0.323000000
C    -2.774000000    -1.233000000    -0.787000000
O    -2.787000000    -1.934000000    -1.778000000
O    -3.827000000    -0.815000000    -0.358000000
