14
-88.32504
C    -0.702000000    -1.011000000    -0.898000000
H    -1.191000000    -1.678000000    -1.603000000
C    -1.355000000     0.075000000    -0.235000000
H    -2.398000000     0.371000000    -0.309000000
C    -0.591000000     0.958000000     0.533000000
H    -1.080000000     1.781000000     1.061000000
C     0.780000000     0.718000000     0.762000000
H     1.357000000     1.334000000     1.446000000
C     1.392000000    -0.397000000     0.136000000
H     2.449000000    -0.554000000     0.339000000
C     0.671000000    -1.261000000    -0.688000000
C     1.336000000    -2.432000000    -1.350000000
O     0.692000000    -3.289000000    -1.943000000
O     2.464000000    -2.723000000    -0.928000000
