14
-86.13597
C    -1.016000000    -0.865000000    -0.504000000
H    -1.836000000    -1.511000000    -0.806000000
C    -1.189000000     0.530000000    -0.262000000
H    -2.165000000     0.997000000    -0.365000000
C    -0.054000000     1.268000000     0.094000000
H    -0.086000000     2.368000000     0.135000000
C     1.107000000     0.581000000     0.296000000
H     2.006000000     1.165000000     0.477000000
C     1.252000000    -0.797000000     0.066000000
H     2.103000000    -1.383000000     0.406000000
C     0.154000000    -1.570000000    -0.340000000
C     0.211000000    -3.067000000    -0.344000000
O    -0.737000000    -3.727000000    -0.743000000
O     1.277000000    -3.630000000    -0.125000000
