14
-85.66509
C     0.426000000    -0.731000000     1.172000000
H     0.745000000    -1.222000000     2.088000000
C    -0.173000000     0.524000000     1.225000000
H    -0.369000000     0.972000000     2.196000000
C    -0.466000000     1.129000000    -0.051000000
H    -1.048000000     2.111000000    -0.056000000
C    -0.193000000     0.530000000    -1.265000000
H    -0.407000000     1.007000000    -2.218000000
C     0.440000000    -0.727000000    -1.268000000
H     0.600000000    -1.246000000    -2.210000000
C     0.707000000    -1.422000000    -0.066000000
C     1.357000000    -2.754000000     0.051000000
O     1.741000000    -3.269000000     1.081000000
O     1.600000000    -3.298000000    -1.001000000
