14
-85.18374
C     0.462000000    -0.965000000     0.968000000
H     0.705000000    -1.637000000     1.787000000
C    -0.032000000     0.273000000     1.309000000
H    -0.132000000     0.575000000     2.349000000
C    -0.394000000     1.124000000     0.268000000
H    -0.885000000     2.075000000     0.561000000
C    -0.280000000     0.749000000    -0.990000000
H    -0.616000000     1.481000000    -1.721000000
C     0.319000000    -0.482000000    -1.351000000
H     0.465000000    -0.786000000    -2.384000000
C     0.576000000    -1.423000000    -0.406000000
C     0.811000000    -2.894000000    -0.781000000
O     1.052000000    -3.748000000     0.074000000
O     0.587000000    -3.245000000    -1.931000000
