14
-88.63967
C     0.159000000    -0.647000000     1.280000000
H     0.183000000    -1.098000000     2.268000000
C    -0.529000000     0.506000000     1.056000000
H    -0.970000000     1.016000000     1.909000000
C    -0.636000000     1.084000000    -0.229000000
H    -1.096000000     2.029000000    -0.432000000
C    -0.101000000     0.365000000    -1.292000000
H    -0.139000000     0.784000000    -2.294000000
C     0.629000000    -0.795000000    -1.069000000
H     0.974000000    -1.337000000    -1.946000000
C     0.782000000    -1.332000000     0.230000000
C     1.508000000    -2.711000000     0.432000000
O     2.075000000    -2.895000000     1.482000000
O     1.540000000    -3.535000000    -0.429000000
