14
-81.13668
C    -1.054000000    -0.991000000     0.357000000
H    -1.775000000    -1.774000000     0.580000000
C    -1.017000000    -0.348000000    -0.890000000
H    -1.711000000    -0.550000000    -1.702000000
C     0.053000000     0.539000000    -1.114000000
H     0.161000000     0.977000000    -2.137000000
C     0.905000000     0.807000000    -0.059000000
H     1.726000000     1.513000000    -0.150000000
C     0.979000000     0.162000000     1.150000000
H     1.713000000     0.453000000     1.897000000
C    -0.045000000    -0.757000000     1.343000000
C    -0.110000000    -1.476000000     2.640000000
O    -0.951000000    -2.334000000     2.815000000
O     0.682000000    -1.264000000     3.494000000
