14
-86.10360
C    -1.117000000    -0.862000000     0.393000000
H    -2.022000000    -1.406000000     0.648000000
C    -1.256000000     0.275000000    -0.487000000
H    -2.163000000     0.474000000    -1.053000000
C    -0.030000000     0.937000000    -0.807000000
H    -0.038000000     1.618000000    -1.637000000
C     1.141000000     0.646000000    -0.055000000
H     2.021000000     1.182000000    -0.401000000
C     1.154000000    -0.360000000     0.861000000
H     2.030000000    -0.522000000     1.484000000
C     0.054000000    -1.133000000     1.079000000
C    -0.012000000    -2.220000000     2.104000000
O    -0.775000000    -3.147000000     1.895000000
O     0.959000000    -2.232000000     2.954000000
