14
-88.19623
C    -1.170000000    -0.636000000    -0.582000000
H    -2.103000000    -1.027000000    -0.979000000
C    -1.153000000     0.612000000     0.042000000
H    -2.132000000     1.080000000     0.115000000
C     0.055000000     1.162000000     0.464000000
H     0.113000000     2.153000000     0.990000000
C     1.236000000     0.377000000     0.299000000
H     2.148000000     0.798000000     0.713000000
C     1.159000000    -0.903000000    -0.171000000
H     2.102000000    -1.430000000    -0.051000000
C    -0.060000000    -1.494000000    -0.622000000
C    -0.170000000    -2.906000000    -1.178000000
O     0.858000000    -3.476000000    -1.537000000
O    -1.281000000    -3.279000000    -1.425000000
