14
-85.43385
C    -0.875000000    -0.760000000     1.003000000
H    -1.611000000    -1.398000000     1.485000000
C    -1.316000000    -0.113000000    -0.131000000
H    -2.382000000    -0.107000000    -0.344000000
C    -0.417000000     0.622000000    -0.981000000
H    -0.803000000     1.105000000    -1.886000000
C     0.951000000     0.491000000    -0.714000000
H     1.672000000     0.853000000    -1.442000000
C     1.386000000    -0.132000000     0.456000000
H     2.457000000    -0.045000000     0.620000000
C     0.475000000    -0.776000000     1.296000000
C     1.006000000    -1.450000000     2.533000000
O     0.220000000    -1.898000000     3.356000000
O     2.167000000    -1.419000000     2.753000000
