14
-82.81506
C    -1.075000000     0.056000000     0.949000000
H    -1.928000000     0.293000000     1.580000000
C    -1.094000000     0.583000000    -0.335000000
H    -2.034000000     1.040000000    -0.636000000
C    -0.050000000     0.330000000    -1.191000000
H    -0.066000000     0.621000000    -2.183000000
C     1.093000000    -0.205000000    -0.715000000
H     1.877000000    -0.242000000    -1.468000000
C     1.192000000    -0.696000000     0.613000000
H     2.002000000    -1.276000000     1.046000000
C     0.110000000    -0.546000000     1.524000000
C     0.244000000    -0.920000000     2.949000000
O    -0.760000000    -0.700000000     3.649000000
O     1.223000000    -1.453000000     3.381000000
