14
-85.36890
C    -1.200000000    -0.189000000     0.801000000
H    -2.075000000    -0.368000000     1.421000000
C    -1.199000000     0.077000000    -0.542000000
H    -2.138000000     0.057000000    -1.089000000
C     0.012000000     0.278000000    -1.174000000
H     0.076000000     0.585000000    -2.263000000
C     1.186000000     0.165000000    -0.502000000
H     2.111000000     0.303000000    -1.055000000
C     1.228000000    -0.036000000     0.863000000
H     2.189000000    -0.131000000     1.362000000
C    -0.006000000    -0.141000000     1.540000000
C     0.002000000    -0.332000000     3.021000000
O    -1.071000000    -0.618000000     3.557000000
O     1.019000000    -0.556000000     3.631000000
