14
-80.81443
C    -0.884000000    -1.044000000     0.473000000
H    -1.583000000    -1.840000000     0.717000000
C    -1.148000000    -0.130000000    -0.495000000
H    -2.119000000    -0.188000000    -0.981000000
C    -0.188000000     0.811000000    -0.909000000
H    -0.407000000     1.628000000    -1.637000000
C     1.041000000     0.740000000    -0.326000000
H     1.703000000     1.563000000    -0.583000000
C     1.298000000    -0.104000000     0.700000000
H     2.295000000    -0.073000000     1.132000000
C     0.337000000    -1.047000000     1.076000000
C     0.587000000    -2.066000000     2.215000000
O    -0.256000000    -2.883000000     2.477000000
O     1.496000000    -1.953000000     3.012000000
