14
-88.17618
C    -1.096000000    -0.541000000     0.942000000
H    -1.846000000    -1.037000000     1.553000000
C    -1.290000000     0.082000000    -0.317000000
H    -2.294000000     0.097000000    -0.733000000
C    -0.242000000     0.575000000    -1.104000000
H    -0.448000000     1.038000000    -2.125000000
C     1.050000000     0.530000000    -0.530000000
H     1.924000000     0.967000000    -1.006000000
C     1.229000000    -0.063000000     0.679000000
H     2.260000000    -0.144000000     1.013000000
C     0.264000000    -0.720000000     1.441000000
C     0.646000000    -1.499000000     2.669000000
O    -0.207000000    -2.039000000     3.346000000
O     1.842000000    -1.491000000     2.980000000
