14
-79.98765
C    -1.207000000    -0.915000000     0.145000000
H    -2.098000000    -1.538000000     0.122000000
C    -1.020000000     0.044000000    -0.855000000
H    -1.839000000     0.088000000    -1.569000000
C     0.033000000     0.914000000    -0.823000000
H     0.062000000     1.725000000    -1.581000000
C     1.007000000     0.784000000     0.165000000
H     1.810000000     1.509000000     0.272000000
C     0.942000000    -0.228000000     1.100000000
H     1.760000000    -0.328000000     1.808000000
C    -0.171000000    -1.116000000     1.121000000
C    -0.204000000    -2.243000000     2.076000000
O    -1.060000000    -3.104000000     2.177000000
O     0.762000000    -2.469000000     2.757000000
