14
-89.70881
C    -0.375000000    -1.272000000     0.667000000
H    -0.637000000    -2.219000000     1.131000000
C     0.030000000    -1.134000000    -0.656000000
H     0.124000000    -1.986000000    -1.325000000
C     0.251000000     0.100000000    -1.196000000
H     0.617000000     0.093000000    -2.217000000
C     0.031000000     1.244000000    -0.438000000
H     0.290000000     2.252000000    -0.752000000
C    -0.200000000     1.108000000     0.929000000
H    -0.206000000     1.977000000     1.583000000
C    -0.436000000    -0.162000000     1.494000000
C    -0.653000000    -0.407000000     3.008000000
O    -0.653000000    -1.526000000     3.494000000
O    -0.927000000     0.571000000     3.662000000
