14
-86.19025
C    -0.689000000    -1.089000000     0.633000000
H    -1.380000000    -1.822000000     1.041000000
C    -1.061000000    -0.526000000    -0.654000000
H    -2.006000000    -0.852000000    -1.082000000
C    -0.266000000     0.491000000    -1.087000000
H    -0.559000000     1.012000000    -2.035000000
C     0.888000000     0.897000000    -0.446000000
H     1.558000000     1.594000000    -0.943000000
C     1.256000000     0.356000000     0.862000000
H     2.084000000     0.661000000     1.497000000
C     0.442000000    -0.686000000     1.340000000
C     0.791000000    -1.281000000     2.659000000
O     0.077000000    -2.195000000     3.067000000
O     1.666000000    -0.832000000     3.413000000
