14
-87.37306
C    -0.138000000    -1.436000000    -0.413000000
H    -0.097000000    -2.508000000    -0.592000000
C    -0.763000000    -0.875000000     0.685000000
H    -1.414000000    -1.456000000     1.334000000
C    -0.612000000     0.483000000     0.952000000
H    -0.893000000     0.898000000     1.888000000
C     0.092000000     1.295000000     0.009000000
H     0.287000000     2.341000000     0.230000000
C     0.655000000     0.732000000    -1.128000000
H     1.249000000     1.311000000    -1.830000000
C     0.604000000    -0.645000000    -1.252000000
C     1.485000000    -1.251000000    -2.358000000
O     2.610000000    -0.805000000    -2.575000000
O     1.006000000    -2.084000000    -3.039000000
