14
-90.92019
C    -0.225000000    -1.077000000    -1.015000000
H    -0.423000000    -1.852000000    -1.752000000
C    -0.510000000     0.294000000    -1.180000000
H    -0.837000000     0.678000000    -2.143000000
C    -0.314000000     1.159000000    -0.161000000
H    -0.462000000     2.221000000    -0.297000000
C     0.200000000     0.732000000     1.063000000
H     0.431000000     1.466000000     1.830000000
C     0.570000000    -0.592000000     1.225000000
H     0.890000000    -0.909000000     2.214000000
C     0.271000000    -1.527000000     0.247000000
C     0.543000000    -2.973000000     0.487000000
O     0.660000000    -3.721000000    -0.473000000
O     0.721000000    -3.431000000     1.633000000
