14
-89.71886
C    -0.537000000    -1.403000000    -0.006000000
H    -1.046000000    -2.359000000    -0.094000000
C    -0.429000000    -0.475000000    -1.068000000
H    -0.822000000    -0.708000000    -2.054000000
C     0.096000000     0.834000000    -0.909000000
H     0.152000000     1.604000000    -1.648000000
C     0.577000000     1.244000000     0.324000000
H     1.066000000     2.209000000     0.428000000
C     0.426000000     0.342000000     1.377000000
H     0.700000000     0.610000000     2.394000000
C    -0.152000000    -0.943000000     1.247000000
C    -0.140000000    -1.873000000     2.398000000
O    -0.758000000    -2.942000000     2.315000000
O     0.542000000    -1.657000000     3.403000000
