14
-85.60573
C    -0.361000000    -1.436000000    -0.143000000
H    -0.545000000    -2.480000000    -0.385000000
C    -0.830000000    -0.406000000    -0.873000000
H    -1.463000000    -0.546000000    -1.745000000
C    -0.519000000     0.952000000    -0.596000000
H    -0.847000000     1.799000000    -1.239000000
C     0.384000000     1.245000000     0.422000000
H     0.702000000     2.253000000     0.678000000
C     0.887000000     0.167000000     1.222000000
H     1.602000000     0.466000000     1.984000000
C     0.531000000    -1.158000000     0.927000000
C     1.267000000    -2.322000000     1.548000000
O     1.056000000    -3.497000000     1.269000000
O     2.256000000    -2.124000000     2.235000000
