14
-91.74601
C    -0.947000000    -0.712000000    -0.804000000
H    -1.665000000    -1.285000000    -1.385000000
C    -1.047000000    -0.497000000     0.551000000
H    -1.877000000    -0.890000000     1.133000000
C    -0.087000000     0.184000000     1.201000000
H    -0.166000000     0.370000000     2.295000000
C     1.050000000     0.687000000     0.526000000
H     1.882000000     1.202000000     0.999000000
C     1.121000000     0.488000000    -0.910000000
H     1.987000000     0.878000000    -1.439000000
C     0.102000000    -0.183000000    -1.571000000
C     0.149000000    -0.243000000    -3.090000000
O     1.163000000     0.236000000    -3.651000000
O    -0.769000000    -0.739000000    -3.682000000
