14
-80.76190
C    -0.251000000    -0.160000000    -1.474000000
H    -0.523000000    -0.268000000    -2.521000000
C    -1.129000000     0.469000000    -0.589000000
H    -2.068000000     0.876000000    -0.956000000
C    -0.829000000     0.393000000     0.762000000
H    -1.650000000     0.656000000     1.414000000
C     0.420000000     0.048000000     1.217000000
H     0.580000000     0.161000000     2.286000000
C     1.365000000    -0.390000000     0.301000000
H     2.336000000    -0.660000000     0.708000000
C     1.014000000    -0.620000000    -1.038000000
C     1.984000000    -1.231000000    -1.992000000
O     1.864000000    -1.085000000    -3.171000000
O     3.062000000    -1.585000000    -1.586000000
