14
-88.86367
C     0.419000000    -0.832000000    -1.194000000
H     0.650000000    -1.448000000    -2.059000000
C    -0.600000000     0.120000000    -1.254000000
H    -1.088000000     0.247000000    -2.217000000
C    -0.932000000     0.788000000    -0.078000000
H    -1.805000000     1.410000000    -0.021000000
C    -0.275000000     0.557000000     1.108000000
H    -0.668000000     1.184000000     1.903000000
C     0.766000000    -0.379000000     1.202000000
H     1.338000000    -0.463000000     2.122000000
C     1.159000000    -1.051000000     0.028000000
C     2.204000000    -2.170000000     0.107000000
O     2.383000000    -2.958000000    -0.802000000
O     3.018000000    -2.165000000     1.056000000
