14
-90.82543
C    -0.044000000    -1.064000000    -1.072000000
H    -0.026000000    -1.754000000    -1.912000000
C    -1.047000000    -0.065000000    -0.877000000
H    -1.832000000    -0.026000000    -1.628000000
C    -0.938000000     0.789000000     0.180000000
H    -1.783000000     1.444000000     0.299000000
C     0.156000000     0.744000000     0.998000000
H     0.212000000     1.419000000     1.848000000
C     1.207000000    -0.160000000     0.771000000
H     2.016000000    -0.203000000     1.496000000
C     1.088000000    -1.082000000    -0.245000000
C     2.172000000    -2.073000000    -0.513000000
O     2.243000000    -2.584000000    -1.619000000
O     2.934000000    -2.370000000     0.385000000
