14
-79.26334
C     0.529000000    -1.069000000    -0.827000000
H     0.882000000    -1.846000000    -1.500000000
C    -0.429000000    -0.132000000    -1.310000000
H    -0.887000000    -0.192000000    -2.294000000
C    -0.822000000     0.831000000    -0.373000000
H    -1.400000000     1.670000000    -0.723000000
C    -0.431000000     0.757000000     0.958000000
H    -0.788000000     1.540000000     1.623000000
C     0.437000000    -0.157000000     1.388000000
H     0.775000000    -0.225000000     2.419000000
C     1.066000000    -1.081000000     0.504000000
C     2.093000000    -2.188000000     0.896000000
O     2.758000000    -2.706000000     0.010000000
O     2.579000000    -2.179000000     2.019000000
