14
-87.34736
C     0.151000000    -0.529000000    -1.327000000
H     0.282000000    -0.830000000    -2.363000000
C    -0.739000000     0.478000000    -0.995000000
H    -1.330000000     0.955000000    -1.773000000
C    -0.816000000     0.836000000     0.344000000
H    -1.529000000     1.577000000     0.663000000
C    -0.060000000     0.199000000     1.282000000
H    -0.235000000     0.540000000     2.299000000
C     0.835000000    -0.756000000     0.891000000
H     1.395000000    -1.320000000     1.633000000
C     0.955000000    -1.152000000    -0.411000000
C     1.985000000    -2.109000000    -0.898000000
O     2.188000000    -2.291000000    -2.096000000
O     2.630000000    -2.729000000    -0.087000000
