14
-87.75359
C     0.422000000    -1.182000000    -0.764000000
H     0.542000000    -2.052000000    -1.406000000
C    -0.548000000    -0.228000000    -1.091000000
H    -0.931000000    -0.307000000    -2.106000000
C    -0.847000000     0.836000000    -0.231000000
H    -1.594000000     1.605000000    -0.409000000
C    -0.131000000     1.005000000     0.896000000
H    -0.417000000     1.869000000     1.491000000
C     0.855000000     0.061000000     1.263000000
H     1.405000000     0.104000000     2.199000000
C     1.111000000    -1.079000000     0.425000000
C     2.083000000    -2.104000000     0.786000000
O     2.452000000    -2.964000000    -0.045000000
O     2.635000000    -2.041000000     1.883000000
