14
-85.72999
C     1.053000000    -0.098000000    -1.044000000
H     1.742000000    -0.078000000    -1.884000000
C    -0.366000000    -0.210000000    -1.203000000
H    -0.849000000    -0.318000000    -2.171000000
C    -1.231000000     0.045000000    -0.121000000
H    -2.320000000     0.073000000    -0.261000000
C    -0.695000000     0.162000000     1.133000000
H    -1.344000000     0.295000000     1.995000000
C     0.662000000     0.029000000     1.291000000
H     1.084000000     0.163000000     2.284000000
C     1.579000000     0.017000000     0.206000000
C     3.049000000    -0.042000000     0.333000000
O     3.743000000    -0.152000000    -0.672000000
O     3.597000000     0.226000000     1.396000000
