14
-83.84398
C    -0.720000000    -1.268000000    -0.133000000
H    -1.368000000    -2.141000000    -0.127000000
C    -1.296000000     0.002000000    -0.238000000
H    -2.352000000     0.081000000    -0.487000000
C    -0.495000000     1.129000000    -0.119000000
H    -1.049000000     2.073000000    -0.190000000
C     0.887000000     1.014000000     0.148000000
H     1.578000000     1.838000000     0.304000000
C     1.410000000    -0.262000000     0.282000000
H     2.476000000    -0.338000000     0.482000000
C     0.613000000    -1.426000000     0.238000000
C     1.226000000    -2.834000000     0.355000000
O     0.613000000    -3.900000000     0.310000000
O     2.410000000    -2.967000000     0.511000000
