14
-82.09617
C     0.396000000    -0.844000000    -1.174000000
H     0.675000000    -1.426000000    -2.049000000
C    -0.501000000     0.178000000    -1.268000000
H    -1.193000000     0.299000000    -2.098000000
C    -0.772000000     0.897000000    -0.071000000
H    -1.667000000     1.590000000    -0.042000000
C    -0.124000000     0.716000000     1.115000000
H    -0.284000000     1.318000000     2.005000000
C     0.888000000    -0.226000000     1.193000000
H     1.351000000    -0.501000000     2.138000000
C     1.116000000    -1.060000000     0.044000000
C     1.997000000    -2.229000000     0.221000000
O     1.776000000    -3.341000000    -0.316000000
O     2.995000000    -2.078000000     0.849000000
