14
-87.35014
C     0.745000000    -1.024000000    -0.682000000
H     1.174000000    -1.902000000    -1.159000000
C    -0.568000000    -0.593000000    -1.033000000
H    -1.155000000    -1.210000000    -1.708000000
C    -1.196000000     0.351000000    -0.263000000
H    -2.205000000     0.606000000    -0.604000000
C    -0.450000000     1.063000000     0.678000000
H    -0.921000000     1.869000000     1.235000000
C     0.857000000     0.704000000     0.928000000
H     1.340000000     1.250000000     1.735000000
C     1.520000000    -0.354000000     0.252000000
C     3.003000000    -0.831000000     0.508000000
O     3.512000000    -1.834000000     0.061000000
O     3.674000000    -0.084000000     1.234000000
