14
-89.80819
C     1.349000000     0.584000000     0.183000000
H     2.323000000     1.014000000     0.399000000
C     0.170000000     1.007000000     0.930000000
H     0.234000000     1.739000000     1.732000000
C    -1.067000000     0.424000000     0.549000000
H    -1.872000000     0.807000000     1.181000000
C    -1.141000000    -0.424000000    -0.536000000
H    -2.078000000    -0.930000000    -0.752000000
C     0.044000000    -0.876000000    -1.164000000
H    -0.044000000    -1.636000000    -1.935000000
C     1.262000000    -0.357000000    -0.882000000
C     2.546000000    -0.850000000    -1.571000000
O     3.653000000    -0.279000000    -1.443000000
O     2.444000000    -1.893000000    -2.219000000
