14
-89.19719
C     0.973000000     0.624000000    -0.812000000
H     1.608000000     1.008000000    -1.606000000
C    -0.376000000     0.590000000    -1.019000000
H    -0.801000000     0.958000000    -1.950000000
C    -1.203000000    -0.023000000    -0.106000000
H    -2.274000000    -0.117000000    -0.225000000
C    -0.676000000    -0.635000000     1.041000000
H    -1.380000000    -0.997000000     1.786000000
C     0.738000000    -0.632000000     1.157000000
H     1.114000000    -1.195000000     2.007000000
C     1.582000000     0.024000000     0.241000000
C     3.102000000     0.082000000     0.346000000
O     3.782000000     0.569000000    -0.541000000
O     3.650000000    -0.328000000     1.380000000
