14
-85.95149
C     0.807000000     0.173000000    -1.201000000
H     1.263000000     0.523000000    -2.123000000
C    -0.525000000     0.135000000    -1.166000000
H    -1.116000000     0.423000000    -2.032000000
C    -1.208000000    -0.014000000     0.037000000
H    -2.297000000    -0.001000000     0.128000000
C    -0.501000000    -0.259000000     1.213000000
H    -1.057000000    -0.445000000     2.129000000
C     0.895000000    -0.271000000     1.186000000
H     1.433000000    -0.458000000     2.111000000
C     1.543000000    -0.045000000    -0.048000000
C     3.107000000     0.025000000    -0.120000000
O     3.587000000     0.253000000    -1.182000000
O     3.730000000    -0.352000000     0.836000000
