14
-79.99176
C    -0.447000000    -0.615000000    -1.232000000
H    -0.960000000    -0.971000000    -2.122000000
C    -0.983000000    -0.880000000    -0.017000000
H    -1.909000000    -1.442000000     0.075000000
C    -0.462000000    -0.276000000     1.131000000
H    -1.021000000    -0.395000000     2.016000000
C     0.634000000     0.550000000     1.012000000
H     0.896000000     1.178000000     1.861000000
C     1.306000000     0.662000000    -0.246000000
H     2.030000000     1.468000000    -0.339000000
C     0.731000000     0.091000000    -1.402000000
C     1.252000000     0.374000000    -2.813000000
O     2.215000000     1.149000000    -2.976000000
O     0.712000000     0.052000000    -3.826000000
