14
-90.80919
C     0.004000000    -0.536000000    -1.359000000
H    -0.132000000    -0.888000000    -2.378000000
C    -0.795000000    -0.990000000    -0.325000000
H    -1.622000000    -1.643000000    -0.594000000
C    -0.701000000    -0.475000000     0.997000000
H    -1.274000000    -0.877000000     1.803000000
C     0.279000000     0.494000000     1.196000000
H     0.475000000     1.026000000     2.124000000
C     1.078000000     0.931000000     0.170000000
H     1.868000000     1.649000000     0.375000000
C     0.960000000     0.452000000    -1.116000000
C     1.841000000     0.930000000    -2.310000000
O     2.873000000     1.583000000    -2.127000000
O     1.545000000     0.645000000    -3.476000000
