14
-83.20262
C     1.337000000     0.478000000    -0.363000000
H     2.271000000     0.947000000    -0.661000000
C     0.649000000     0.898000000     0.740000000
H     1.134000000     1.674000000     1.326000000
C    -0.575000000     0.326000000     0.985000000
H    -1.080000000     0.760000000     1.877000000
C    -1.132000000    -0.733000000     0.296000000
H    -2.113000000    -1.177000000     0.448000000
C    -0.325000000    -1.166000000    -0.777000000
H    -0.722000000    -1.863000000    -1.511000000
C     0.853000000    -0.528000000    -1.172000000
C     1.492000000    -0.768000000    -2.489000000
O     2.658000000    -0.389000000    -2.713000000
O     0.965000000    -1.591000000    -3.190000000
