14
-81.42304
C     1.061000000     0.853000000    -0.456000000
H     1.951000000     1.456000000    -0.622000000
C     0.645000000     0.823000000     0.820000000
H     1.238000000     1.323000000     1.581000000
C    -0.320000000    -0.120000000     1.119000000
H    -0.699000000    -0.235000000     2.179000000
C    -0.984000000    -0.877000000     0.153000000
H    -1.791000000    -1.536000000     0.462000000
C    -0.662000000    -0.713000000    -1.172000000
H    -1.313000000    -1.143000000    -1.928000000
C     0.353000000     0.200000000    -1.495000000
C     0.791000000     0.394000000    -2.901000000
O     1.795000000     1.038000000    -3.117000000
O     0.365000000    -0.378000000    -3.751000000
