14
-95.26019
C     1.434000000    -0.453000000    -0.295000000
H     2.484000000    -0.654000000    -0.494000000
C     1.046000000     0.513000000     0.638000000
H     1.764000000     1.080000000     1.224000000
C    -0.278000000     0.844000000     0.834000000
H    -0.644000000     1.598000000     1.565000000
C    -1.249000000     0.203000000     0.066000000
H    -2.292000000     0.456000000     0.239000000
C    -0.925000000    -0.837000000    -0.801000000
H    -1.713000000    -1.378000000    -1.319000000
C     0.433000000    -1.141000000    -1.058000000
C     0.788000000    -2.105000000    -2.151000000
O     1.883000000    -2.659000000    -1.972000000
O     0.021000000    -2.275000000    -3.126000000
