14
-86.24411
C     0.026000000     0.447000000    -1.389000000
H     0.140000000     0.912000000    -2.365000000
C     0.132000000     1.312000000    -0.269000000
H     0.353000000     2.357000000    -0.475000000
C     0.058000000     0.738000000     1.013000000
H     0.226000000     1.335000000     1.819000000
C    -0.211000000    -0.649000000     1.190000000
H    -0.315000000    -1.114000000     2.167000000
C    -0.232000000    -1.491000000     0.003000000
H    -0.389000000    -2.558000000     0.141000000
C    -0.170000000    -0.938000000    -1.259000000
C    -0.151000000    -1.809000000    -2.548000000
O    -0.042000000    -1.309000000    -3.606000000
O    -0.290000000    -3.023000000    -2.428000000
