14
-84.80867
C     1.236000000    -0.153000000    -0.854000000
H     2.208000000    -0.253000000    -1.331000000
C     1.107000000     0.533000000     0.425000000
H     2.050000000     0.920000000     0.803000000
C    -0.091000000     0.593000000     1.109000000
H    -0.222000000     0.979000000     2.124000000
C    -1.177000000    -0.091000000     0.595000000
H    -2.115000000    -0.078000000     1.144000000
C    -1.038000000    -0.784000000    -0.626000000
H    -1.897000000    -1.359000000    -0.961000000
C     0.103000000    -0.737000000    -1.393000000
C     0.184000000    -1.583000000    -2.675000000
O     1.301000000    -1.638000000    -3.149000000
O    -0.834000000    -1.721000000    -3.322000000
