14
-85.68748
C     0.339000000    -0.401000000    -1.350000000
H     0.470000000    -0.489000000    -2.426000000
C     0.714000000     0.802000000    -0.773000000
H     1.164000000     1.533000000    -1.440000000
C     0.336000000     1.085000000     0.544000000
H     0.590000000     2.028000000     0.929000000
C    -0.339000000     0.102000000     1.287000000
H    -0.557000000     0.276000000     2.338000000
C    -0.600000000    -1.171000000     0.738000000
H    -1.164000000    -1.930000000     1.273000000
C    -0.303000000    -1.418000000    -0.637000000
C    -0.758000000    -2.665000000    -1.333000000
O    -0.414000000    -3.061000000    -2.447000000
O    -1.280000000    -3.515000000    -0.613000000
