14
-85.35424
C     0.876000000    -1.046000000     0.466000000
H     1.527000000    -1.770000000     0.949000000
C     1.299000000     0.227000000     0.185000000
H     2.341000000     0.504000000     0.320000000
C     0.333000000     1.120000000    -0.261000000
H     0.612000000     2.105000000    -0.591000000
C    -0.962000000     0.758000000    -0.440000000
H    -1.645000000     1.524000000    -0.799000000
C    -1.389000000    -0.542000000    -0.189000000
H    -2.418000000    -0.802000000    -0.426000000
C    -0.423000000    -1.491000000     0.238000000
C    -0.919000000    -2.862000000     0.740000000
O    -0.129000000    -3.737000000     1.049000000
O    -2.076000000    -3.097000000     0.672000000
