14
-87.37565
C    -0.138000000    -1.020000000    -1.086000000
H    -0.102000000    -1.877000000    -1.754000000
C    -0.412000000    -1.209000000     0.213000000
H    -0.757000000    -2.168000000     0.591000000
C    -0.390000000    -0.149000000     1.139000000
H    -0.699000000    -0.366000000     2.168000000
C    -0.016000000     1.111000000     0.741000000
H    -0.173000000     1.995000000     1.352000000
C     0.418000000     1.309000000    -0.550000000
H     0.698000000     2.293000000    -0.919000000
C     0.417000000     0.245000000    -1.474000000
C     1.045000000     0.425000000    -2.859000000
O     2.094000000     1.022000000    -2.976000000
O     0.464000000    -0.067000000    -3.782000000
