14
-87.87361
C     0.871000000    -1.099000000    -0.467000000
H     1.642000000    -1.819000000    -0.727000000
C     1.087000000     0.256000000    -0.716000000
H     1.942000000     0.668000000    -1.247000000
C     0.215000000     1.189000000    -0.193000000
H     0.435000000     2.246000000    -0.391000000
C    -0.909000000     0.838000000     0.495000000
H    -1.672000000     1.549000000     0.804000000
C    -1.107000000    -0.520000000     0.787000000
H    -1.961000000    -0.840000000     1.378000000
C    -0.211000000    -1.528000000     0.323000000
C    -0.456000000    -3.030000000     0.607000000
O     0.060000000    -3.929000000    -0.082000000
O    -1.407000000    -3.305000000     1.294000000
