14
-90.82331
C     0.970000000    -1.100000000     0.116000000
H     1.821000000    -1.777000000     0.124000000
C     1.166000000     0.069000000    -0.605000000
H     2.088000000     0.278000000    -1.141000000
C     0.175000000     1.022000000    -0.617000000
H     0.419000000     1.974000000    -1.109000000
C    -0.967000000     0.941000000     0.185000000
H    -1.724000000     1.721000000     0.190000000
C    -1.159000000    -0.271000000     0.928000000
H    -2.083000000    -0.404000000     1.485000000
C    -0.241000000    -1.314000000     0.892000000
C    -0.549000000    -2.641000000     1.541000000
O     0.038000000    -3.637000000     1.146000000
O    -1.359000000    -2.672000000     2.456000000
