14
-86.00074
C     0.833000000    -1.219000000    -0.155000000
H     1.484000000    -2.043000000    -0.436000000
C     1.100000000     0.061000000    -0.620000000
H     2.058000000     0.267000000    -1.092000000
C     0.181000000     1.105000000    -0.529000000
H     0.407000000     2.065000000    -0.960000000
C    -0.972000000     0.925000000     0.310000000
H    -1.723000000     1.708000000     0.377000000
C    -1.188000000    -0.329000000     0.885000000
H    -2.061000000    -0.476000000     1.516000000
C    -0.324000000    -1.386000000     0.617000000
C    -0.655000000    -2.779000000     1.107000000
O     0.110000000    -3.731000000     0.969000000
O    -1.547000000    -2.946000000     1.915000000
