14
-84.62589
C     0.642000000    -1.188000000     0.704000000
H     1.143000000    -2.110000000     0.987000000
C     0.462000000    -1.016000000    -0.712000000
H     0.734000000    -1.780000000    -1.435000000
C    -0.050000000     0.212000000    -1.170000000
H    -0.147000000     0.456000000    -2.265000000
C    -0.536000000     1.159000000    -0.338000000
H    -1.020000000     2.056000000    -0.717000000
C    -0.413000000     0.883000000     1.050000000
H    -0.840000000     1.699000000     1.626000000
C     0.269000000    -0.199000000     1.548000000
C     0.366000000    -0.492000000     3.042000000
O     0.896000000    -1.504000000     3.416000000
O    -0.188000000     0.318000000     3.738000000
