14
-80.46114
C     0.687000000    -1.338000000    -0.070000000
H     1.266000000    -2.256000000    -0.132000000
C     0.596000000    -0.440000000    -1.120000000
H     1.059000000    -0.729000000    -2.059000000
C    -0.123000000     0.791000000    -0.982000000
H    -0.155000000     1.454000000    -1.811000000
C    -0.682000000     1.120000000     0.264000000
H    -1.271000000     2.032000000     0.336000000
C    -0.537000000     0.201000000     1.308000000
H    -0.994000000     0.447000000     2.263000000
C     0.151000000    -1.021000000     1.210000000
C     0.312000000    -1.887000000     2.420000000
O     1.065000000    -2.786000000     2.463000000
O    -0.523000000    -1.863000000     3.310000000
