14
-91.14628
C     0.264000000    -1.439000000     0.013000000
H     0.477000000    -2.505000000     0.016000000
C     1.074000000    -0.543000000    -0.642000000
H     1.968000000    -0.886000000    -1.156000000
C     0.671000000     0.797000000    -0.699000000
H     1.297000000     1.474000000    -1.252000000
C    -0.477000000     1.192000000    -0.100000000
H    -0.721000000     2.248000000    -0.016000000
C    -1.360000000     0.295000000     0.541000000
H    -2.282000000     0.666000000     0.980000000
C    -0.955000000    -1.052000000     0.612000000
C    -1.757000000    -1.990000000     1.495000000
O    -1.490000000    -3.220000000     1.471000000
O    -2.605000000    -1.598000000     2.259000000
