14
-84.04561
C     0.349000000    -1.361000000    -0.131000000
H     0.779000000    -2.354000000    -0.237000000
C     1.048000000    -0.320000000    -0.737000000
H     1.991000000    -0.510000000    -1.244000000
C     0.522000000     0.953000000    -0.578000000
H     0.945000000     1.858000000    -1.076000000
C    -0.726000000     1.109000000     0.000000000
H    -1.134000000     2.115000000    -0.036000000
C    -1.376000000     0.049000000     0.649000000
H    -2.242000000     0.262000000     1.270000000
C    -0.810000000    -1.249000000     0.630000000
C    -1.311000000    -2.392000000     1.476000000
O    -0.781000000    -3.485000000     1.346000000
O    -1.970000000    -2.225000000     2.477000000
