14
-87.87958
C     0.771000000    -1.229000000    -0.218000000
H     1.474000000    -2.029000000    -0.439000000
C     0.901000000    -0.065000000    -0.910000000
H     1.589000000    -0.007000000    -1.750000000
C     0.109000000     1.054000000    -0.643000000
H     0.099000000     1.967000000    -1.233000000
C    -0.716000000     1.006000000     0.483000000
H    -1.264000000     1.867000000     0.856000000
C    -0.920000000    -0.146000000     1.251000000
H    -1.605000000    -0.057000000     2.091000000
C    -0.174000000    -1.300000000     0.833000000
C    -0.400000000    -2.667000000     1.459000000
O     0.186000000    -3.606000000     0.945000000
O    -1.228000000    -2.886000000     2.347000000
