14
-86.86078
C     0.280000000    -0.995000000    -1.032000000
H     0.529000000    -1.748000000    -1.775000000
C     0.275000000     0.399000000    -1.210000000
H     0.516000000     0.841000000    -2.174000000
C     0.074000000     1.214000000    -0.148000000
H     0.070000000     2.279000000    -0.332000000
C    -0.236000000     0.728000000     1.110000000
H    -0.365000000     1.368000000     1.980000000
C    -0.463000000    -0.645000000     1.266000000
H    -0.896000000    -1.085000000     2.161000000
C    -0.085000000    -1.538000000     0.208000000
C    -0.232000000    -3.078000000     0.298000000
O    -0.068000000    -3.802000000    -0.665000000
O    -0.501000000    -3.600000000     1.353000000
