14
-86.19776
C     0.311000000    -1.424000000     0.223000000
H     0.641000000    -2.453000000     0.342000000
C     1.030000000    -0.495000000    -0.624000000
H     1.860000000    -0.821000000    -1.246000000
C     0.593000000     0.868000000    -0.765000000
H     1.159000000     1.616000000    -1.268000000
C    -0.472000000     1.226000000     0.050000000
H    -0.764000000     2.273000000     0.071000000
C    -1.173000000     0.319000000     0.906000000
H    -1.890000000     0.691000000     1.634000000
C    -0.796000000    -0.993000000     0.934000000
C    -1.357000000    -2.039000000     1.896000000
O    -1.164000000    -3.197000000     1.665000000
O    -1.835000000    -1.657000000     2.950000000
