14
-87.04170
C    -0.693000000    -0.786000000    -1.020000000
H    -1.089000000    -1.363000000    -1.852000000
C     0.178000000     0.303000000    -1.254000000
H     0.523000000     0.466000000    -2.272000000
C     0.789000000     0.975000000    -0.180000000
H     1.493000000     1.749000000    -0.249000000
C     0.358000000     0.637000000     1.115000000
H     0.875000000     1.110000000     1.946000000
C    -0.518000000    -0.460000000     1.297000000
H    -0.713000000    -0.769000000     2.321000000
C    -1.027000000    -1.164000000     0.251000000
C    -2.029000000    -2.336000000     0.502000000
O    -2.404000000    -3.012000000    -0.451000000
O    -2.420000000    -2.521000000     1.591000000
