14
-84.15856
C    -0.161000000    -0.960000000    -0.951000000
H    -0.158000000    -1.813000000    -1.625000000
C     0.852000000    -0.024000000    -0.992000000
H     1.646000000    -0.158000000    -1.723000000
C     0.857000000     0.886000000     0.012000000
H     1.682000000     1.638000000     0.109000000
C    -0.213000000     0.926000000     0.957000000
H    -0.167000000     1.713000000     1.705000000
C    -1.256000000     0.008000000     0.926000000
H    -2.059000000     0.012000000     1.659000000
C    -1.184000000    -1.027000000    -0.084000000
C    -2.049000000    -2.324000000     0.039000000
O    -1.985000000    -3.096000000    -0.878000000
O    -2.882000000    -2.447000000     0.913000000
