14
-89.19332
C    -0.257000000    -1.095000000    -0.988000000
H    -0.373000000    -1.812000000    -1.797000000
C     0.293000000     0.132000000    -1.307000000
H     0.631000000     0.340000000    -2.319000000
C     0.543000000     1.027000000    -0.292000000
H     1.047000000     1.994000000    -0.506000000
C     0.181000000     0.778000000     1.048000000
H     0.348000000     1.526000000     1.819000000
C    -0.466000000    -0.426000000     1.298000000
H    -0.743000000    -0.670000000     2.320000000
C    -0.701000000    -1.402000000     0.305000000
C    -1.573000000    -2.587000000     0.622000000
O    -1.715000000    -3.459000000    -0.209000000
O    -2.039000000    -2.706000000     1.717000000
