14
-82.94557
C    -0.203000000    -0.663000000    -1.294000000
H    -0.598000000    -1.103000000    -2.206000000
C    -0.927000000    -0.884000000    -0.142000000
H    -1.700000000    -1.646000000    -0.202000000
C    -0.619000000    -0.227000000     1.039000000
H    -1.158000000    -0.328000000     1.906000000
C     0.408000000     0.686000000     1.067000000
H     0.673000000     1.173000000     2.002000000
C     1.096000000     0.964000000    -0.096000000
H     1.866000000     1.728000000    -0.018000000
C     0.800000000     0.337000000    -1.296000000
C     1.645000000     0.658000000    -2.489000000
O     2.407000000     1.608000000    -2.513000000
O     1.316000000     0.196000000    -3.568000000
