14
-78.80568
C     1.215000000    -0.290000000    -0.709000000
H     2.232000000    -0.419000000    -1.071000000
C     1.140000000     0.362000000     0.478000000
H     2.064000000     0.631000000     0.984000000
C    -0.129000000     0.587000000     1.048000000
H    -0.287000000     1.101000000     2.004000000
C    -1.309000000     0.102000000     0.448000000
H    -2.227000000     0.192000000     1.025000000
C    -1.175000000    -0.535000000    -0.817000000
H    -2.099000000    -0.806000000    -1.322000000
C     0.092000000    -0.769000000    -1.415000000
C     0.242000000    -1.502000000    -2.738000000
O     1.300000000    -1.645000000    -3.223000000
O    -0.761000000    -1.813000000    -3.245000000
