14
-90.35377
C     1.101000000    -0.923000000    -0.543000000
H     1.966000000    -1.503000000    -0.856000000
C     1.278000000     0.226000000     0.225000000
H     2.275000000     0.495000000     0.564000000
C     0.232000000     0.918000000     0.776000000
H     0.446000000     1.771000000     1.336000000
C    -1.099000000     0.568000000     0.438000000
H    -1.935000000     1.200000000     0.726000000
C    -1.286000000    -0.477000000    -0.470000000
H    -2.291000000    -0.687000000    -0.827000000
C    -0.192000000    -1.282000000    -0.875000000
C    -0.519000000    -2.454000000    -1.845000000
O     0.392000000    -3.096000000    -2.390000000
O    -1.664000000    -2.776000000    -1.999000000
