14
-88.50996
C     1.421000000     0.046000000    -0.312000000
H     2.493000000     0.216000000    -0.378000000
C     0.812000000     0.138000000     0.923000000
H     1.435000000     0.500000000     1.737000000
C    -0.556000000     0.033000000     1.090000000
H    -0.984000000     0.024000000     2.067000000
C    -1.323000000    -0.031000000    -0.028000000
H    -2.385000000    -0.079000000     0.197000000
C    -0.780000000    -0.145000000    -1.318000000
H    -1.415000000    -0.283000000    -2.189000000
C     0.619000000    -0.121000000    -1.474000000
C     1.328000000    -0.202000000    -2.802000000
O     2.553000000    -0.179000000    -2.796000000
O     0.743000000    -0.367000000    -3.863000000
