14
-88.51817
C     0.063000000     0.271000000    -1.467000000
H     0.257000000     0.549000000    -2.499000000
C     0.818000000     0.985000000    -0.490000000
H     1.488000000     1.761000000    -0.853000000
C     0.645000000     0.643000000     0.878000000
H     1.233000000     1.178000000     1.630000000
C    -0.317000000    -0.310000000     1.264000000
H    -0.363000000    -0.639000000     2.299000000
C    -1.065000000    -0.960000000     0.207000000
H    -1.831000000    -1.697000000     0.434000000
C    -0.907000000    -0.653000000    -1.129000000
C    -1.743000000    -1.363000000    -2.236000000
O    -1.646000000    -0.929000000    -3.357000000
O    -2.242000000    -2.435000000    -2.005000000
