14
-87.53086
C     0.125000000     1.476000000    -0.052000000
H     0.304000000     2.547000000    -0.002000000
C     0.562000000     0.721000000     1.044000000
H     1.070000000     1.227000000     1.862000000
C     0.505000000    -0.675000000     0.876000000
H     0.933000000    -1.347000000     1.627000000
C    -0.016000000    -1.300000000    -0.234000000
H    -0.054000000    -2.385000000    -0.282000000
C    -0.513000000    -0.554000000    -1.319000000
H    -0.902000000    -0.959000000    -2.250000000
C    -0.539000000     0.886000000    -1.172000000
C    -1.153000000     1.783000000    -2.267000000
O    -0.960000000     2.972000000    -2.223000000
O    -1.963000000     1.324000000    -3.058000000
