14
-90.22756
C    -0.292000000     0.911000000    -1.118000000
H    -0.405000000     1.735000000    -1.817000000
C     0.526000000     1.187000000    -0.017000000
H     1.058000000     2.132000000     0.054000000
C     0.742000000     0.235000000     0.955000000
H     1.319000000     0.448000000     1.901000000
C     0.081000000    -0.983000000     0.872000000
H     0.328000000    -1.672000000     1.676000000
C    -0.699000000    -1.242000000    -0.236000000
H    -1.259000000    -2.173000000    -0.256000000
C    -0.943000000    -0.297000000    -1.210000000
C    -1.905000000    -0.564000000    -2.394000000
O    -2.266000000     0.376000000    -3.132000000
O    -2.368000000    -1.681000000    -2.637000000
