14
-87.66102
C    -0.496000000     0.920000000    -1.029000000
H    -0.762000000     1.705000000    -1.732000000
C    -0.776000000     0.967000000     0.276000000
H    -1.362000000     1.798000000     0.658000000
C    -0.309000000     0.052000000     1.192000000
H    -0.525000000     0.188000000     2.211000000
C     0.458000000    -0.974000000     0.766000000
H     0.795000000    -1.756000000     1.442000000
C     0.860000000    -1.025000000    -0.597000000
H     1.628000000    -1.772000000    -0.782000000
C     0.388000000    -0.109000000    -1.535000000
C     0.857000000    -0.139000000    -3.002000000
O     0.422000000     0.672000000    -3.817000000
O     1.576000000    -1.049000000    -3.340000000
