14
-83.92953
C    -0.319000000     1.247000000    -0.713000000
H    -0.570000000     2.240000000    -1.077000000
C     0.072000000     1.167000000     0.621000000
H     0.150000000     2.053000000     1.246000000
C     0.341000000    -0.040000000     1.192000000
H     0.746000000    -0.187000000     2.219000000
C     0.201000000    -1.171000000     0.404000000
H     0.473000000    -2.156000000     0.774000000
C    -0.195000000    -1.128000000    -0.906000000
H    -0.433000000    -1.997000000    -1.513000000
C    -0.407000000     0.135000000    -1.539000000
C    -0.753000000     0.223000000    -2.976000000
O    -1.348000000     1.167000000    -3.510000000
O    -0.489000000    -0.684000000    -3.719000000
