14
-78.17627
C     0.647000000     0.355000000    -1.292000000
H     1.320000000     0.668000000    -2.087000000
C     0.200000000     1.228000000    -0.359000000
H     0.273000000     2.261000000    -0.689000000
C    -0.520000000     0.848000000     0.741000000
H    -0.821000000     1.629000000     1.353000000
C    -0.689000000    -0.578000000     0.978000000
H    -1.242000000    -0.952000000     1.836000000
C    -0.122000000    -1.511000000     0.142000000
H    -0.158000000    -2.565000000     0.406000000
C     0.559000000    -1.025000000    -1.034000000
C     1.308000000    -2.053000000    -1.873000000
O     1.950000000    -1.682000000    -2.848000000
O     1.391000000    -3.163000000    -1.507000000
