14
-88.76020
C     1.328000000     0.169000000    -0.653000000
H     2.328000000     0.360000000    -1.034000000
C     0.691000000     1.029000000     0.273000000
H     1.227000000     1.907000000     0.623000000
C    -0.533000000     0.712000000     0.824000000
H    -1.092000000     1.391000000     1.563000000
C    -1.118000000    -0.492000000     0.530000000
H    -2.130000000    -0.551000000     0.923000000
C    -0.569000000    -1.331000000    -0.445000000
H    -1.178000000    -2.201000000    -0.677000000
C     0.673000000    -1.039000000    -1.021000000
C     1.319000000    -1.834000000    -2.101000000
O     2.502000000    -1.550000000    -2.445000000
O     0.694000000    -2.694000000    -2.690000000
