14
-87.10652
C     0.489000000     0.638000000    -1.247000000
H     0.927000000     1.203000000    -2.066000000
C     0.495000000     1.238000000    -0.006000000
H     0.985000000     2.190000000     0.180000000
C    -0.011000000     0.562000000     1.086000000
H     0.065000000     1.147000000     2.050000000
C    -0.615000000    -0.675000000     0.873000000
H    -1.036000000    -1.121000000     1.771000000
C    -0.650000000    -1.267000000    -0.382000000
H    -1.205000000    -2.199000000    -0.457000000
C    -0.036000000    -0.656000000    -1.447000000
C     0.036000000    -1.400000000    -2.757000000
O     0.791000000    -1.042000000    -3.628000000
O    -0.577000000    -2.464000000    -2.941000000
