14
-81.51949
C     0.906000000     0.362000000    -1.089000000
H     1.539000000     0.743000000    -1.887000000
C     0.962000000     0.833000000     0.228000000
H     1.590000000     1.684000000     0.478000000
C     0.140000000     0.330000000     1.187000000
H     0.210000000     0.861000000     2.115000000
C    -0.890000000    -0.585000000     0.880000000
H    -1.621000000    -0.803000000     1.654000000
C    -0.983000000    -0.958000000    -0.495000000
H    -1.766000000    -1.663000000    -0.762000000
C    -0.093000000    -0.525000000    -1.501000000
C    -0.225000000    -1.071000000    -2.931000000
O     0.332000000    -0.587000000    -3.882000000
O    -1.034000000    -1.932000000    -3.163000000
