14
-76.44056
C     1.358000000     0.172000000    -0.597000000
H     2.366000000     0.374000000    -0.951000000
C     0.665000000     1.019000000     0.262000000
H     1.182000000     1.919000000     0.586000000
C    -0.579000000     0.693000000     0.875000000
H    -1.111000000     1.352000000     1.508000000
C    -1.224000000    -0.428000000     0.511000000
H    -2.227000000    -0.676000000     0.847000000
C    -0.619000000    -1.274000000    -0.469000000
H    -1.177000000    -2.043000000    -0.997000000
C     0.705000000    -1.024000000    -0.962000000
C     1.284000000    -1.954000000    -2.019000000
O     2.345000000    -1.681000000    -2.468000000
O     0.786000000    -2.962000000    -2.505000000
