14
-87.51654
C     0.389000000    -1.442000000    -0.334000000
H     0.747000000    -2.468000000    -0.372000000
C     0.710000000    -0.782000000     0.864000000
H     1.270000000    -1.286000000     1.648000000
C     0.344000000     0.552000000     1.088000000
H     0.700000000     1.114000000     2.001000000
C    -0.496000000     1.164000000     0.174000000
H    -0.814000000     2.189000000     0.349000000
C    -0.775000000     0.554000000    -1.061000000
H    -1.317000000     1.109000000    -1.823000000
C    -0.327000000    -0.752000000    -1.376000000
C    -0.751000000    -1.352000000    -2.673000000
O    -0.120000000    -2.392000000    -2.916000000
O    -1.379000000    -0.764000000    -3.542000000
