14
-91.67395
C     0.435000000     0.566000000    -1.312000000
H     0.720000000     0.986000000    -2.274000000
C     1.109000000     0.778000000    -0.130000000
H     1.996000000     1.406000000    -0.110000000
C     0.547000000     0.301000000     1.070000000
H     1.012000000     0.534000000     1.994000000
C    -0.558000000    -0.526000000     1.014000000
H    -0.835000000    -1.014000000     1.945000000
C    -1.192000000    -0.816000000    -0.178000000
H    -2.026000000    -1.513000000    -0.178000000
C    -0.744000000    -0.247000000    -1.389000000
C    -1.520000000    -0.514000000    -2.669000000
O    -0.969000000    -0.270000000    -3.751000000
O    -2.525000000    -1.222000000    -2.634000000
