14
-85.10165
C     1.034000000    -0.096000000    -1.003000000
H     1.889000000    -0.011000000    -1.669000000
C     0.998000000     0.781000000     0.055000000
H     1.769000000     1.542000000     0.144000000
C    -0.074000000     0.794000000     0.935000000
H    -0.045000000     1.492000000     1.798000000
C    -1.098000000    -0.095000000     0.744000000
H    -1.967000000    -0.203000000     1.387000000
C    -1.027000000    -1.084000000    -0.211000000
H    -1.677000000    -1.947000000    -0.328000000
C     0.033000000    -1.079000000    -1.132000000
C     0.150000000    -2.022000000    -2.346000000
O     0.974000000    -1.848000000    -3.178000000
O    -0.778000000    -2.787000000    -2.541000000
