14
-84.83833
C     0.801000000     0.287000000    -1.165000000
H     1.403000000     0.791000000    -1.916000000
C     1.155000000     0.531000000     0.114000000
H     1.973000000     1.200000000     0.365000000
C     0.340000000     0.108000000     1.136000000
H     0.580000000     0.518000000     2.108000000
C    -0.749000000    -0.741000000     0.898000000
H    -1.426000000    -1.028000000     1.699000000
C    -1.169000000    -0.904000000    -0.409000000
H    -2.090000000    -1.466000000    -0.540000000
C    -0.422000000    -0.376000000    -1.494000000
C    -0.857000000    -0.476000000    -2.910000000
O    -0.199000000     0.041000000    -3.835000000
O    -1.922000000    -0.992000000    -3.198000000
