14
-87.63315
C     0.416000000    -1.338000000    -0.549000000
H     0.763000000    -2.344000000    -0.773000000
C     0.721000000    -0.794000000     0.730000000
H     1.316000000    -1.316000000     1.475000000
C     0.257000000     0.490000000     1.114000000
H     0.502000000     0.835000000     2.173000000
C    -0.580000000     1.182000000     0.256000000
H    -1.077000000     2.064000000     0.653000000
C    -0.805000000     0.684000000    -1.009000000
H    -1.430000000     1.259000000    -1.689000000
C    -0.304000000    -0.530000000    -1.459000000
C    -0.523000000    -1.065000000    -2.897000000
O     0.337000000    -1.705000000    -3.480000000
O    -1.451000000    -0.620000000    -3.559000000
