14
-87.48630
C     0.888000000     0.650000000    -0.971000000
H     1.729000000     0.991000000    -1.569000000
C     0.924000000     0.834000000     0.372000000
H     1.684000000     1.533000000     0.711000000
C     0.027000000     0.139000000     1.239000000
H     0.148000000     0.264000000     2.301000000
C    -0.985000000    -0.674000000     0.664000000
H    -1.741000000    -1.118000000     1.306000000
C    -1.088000000    -0.713000000    -0.726000000
H    -1.829000000    -1.365000000    -1.182000000
C    -0.160000000    -0.121000000    -1.535000000
C    -0.240000000    -0.284000000    -3.019000000
O     0.610000000     0.151000000    -3.808000000
O    -1.191000000    -0.883000000    -3.432000000
