14
-90.24075
C    -1.338000000    -0.472000000    -0.370000000
H    -2.376000000    -0.725000000    -0.574000000
C    -0.785000000    -0.560000000     0.882000000
H    -1.377000000    -0.905000000     1.725000000
C     0.465000000    -0.121000000     1.115000000
H     0.826000000    -0.206000000     2.134000000
C     1.343000000     0.266000000     0.073000000
H     2.391000000     0.491000000     0.256000000
C     0.721000000     0.473000000    -1.175000000
H     1.285000000     0.877000000    -2.012000000
C    -0.613000000     0.023000000    -1.436000000
C    -1.236000000     0.301000000    -2.817000000
O    -2.430000000     0.130000000    -2.922000000
O    -0.523000000     0.655000000    -3.742000000
