14
-81.14865
C    -0.473000000    -0.967000000     0.976000000
H    -0.688000000    -1.539000000     1.875000000
C     0.841000000    -0.830000000     0.612000000
H     1.609000000    -1.414000000     1.113000000
C     1.184000000     0.140000000    -0.328000000
H     2.260000000     0.290000000    -0.604000000
C     0.220000000     0.840000000    -0.963000000
H     0.410000000     1.654000000    -1.658000000
C    -1.122000000     0.670000000    -0.703000000
H    -1.905000000     1.215000000    -1.224000000
C    -1.516000000    -0.188000000     0.375000000
C    -2.971000000    -0.399000000     0.641000000
O    -3.386000000    -1.235000000     1.423000000
O    -3.703000000     0.436000000     0.229000000
