14
-87.06383
C    -0.517000000    -1.285000000    -0.508000000
H    -0.996000000    -2.240000000    -0.705000000
C     0.227000000    -1.121000000     0.663000000
H     0.461000000    -1.921000000     1.360000000
C     0.733000000     0.137000000     0.963000000
H     1.303000000     0.289000000     1.884000000
C     0.536000000     1.196000000     0.102000000
H     0.948000000     2.135000000     0.463000000
C    -0.144000000     1.017000000    -1.080000000
H    -0.155000000     1.771000000    -1.863000000
C    -0.828000000    -0.193000000    -1.282000000
C    -1.765000000    -0.389000000    -2.439000000
O    -2.354000000    -1.411000000    -2.613000000
O    -1.945000000     0.539000000    -3.243000000
