14
-81.32228
C    -1.009000000    -0.983000000    -0.063000000
H    -1.717000000    -1.805000000     0.005000000
C    -0.360000000    -0.682000000     1.105000000
H    -0.462000000    -1.377000000     1.935000000
C     0.564000000     0.340000000     1.078000000
H     1.046000000     0.614000000     1.982000000
C     0.812000000     1.055000000    -0.172000000
H     1.522000000     1.878000000    -0.178000000
C     0.142000000     0.711000000    -1.315000000
H     0.350000000     1.323000000    -2.190000000
C    -0.816000000    -0.348000000    -1.261000000
C    -1.683000000    -0.665000000    -2.481000000
O    -2.542000000    -1.496000000    -2.422000000
O    -1.523000000    -0.188000000    -3.626000000
