14
-68.68099
C    -0.222000000    -1.465000000     0.362000000
H    -0.393000000    -2.494000000     0.667000000
C     0.295000000    -0.488000000     1.198000000
H     0.369000000    -0.815000000     2.232000000
C     0.460000000     0.803000000     0.758000000
H     0.746000000     1.607000000     1.488000000
C     0.136000000     1.208000000    -0.509000000
H     0.321000000     2.267000000    -0.666000000
C    -0.336000000     0.287000000    -1.371000000
H    -0.566000000     0.628000000    -2.377000000
C    -0.592000000    -1.054000000    -0.976000000
C    -1.226000000    -2.031000000    -1.901000000
O    -1.477000000    -3.137000000    -1.614000000
O    -1.704000000    -1.662000000    -2.928000000
