14
-90.51410
C    -0.768000000    -0.439000000     1.126000000
H    -1.155000000    -0.909000000     2.026000000
C     0.568000000    -0.026000000     1.166000000
H     1.126000000     0.011000000     2.098000000
C     1.157000000     0.389000000    -0.021000000
H     2.165000000     0.730000000     0.069000000
C     0.368000000     0.454000000    -1.170000000
H     0.803000000     0.765000000    -2.117000000
C    -0.908000000    -0.060000000    -1.226000000
H    -1.427000000    -0.032000000    -2.181000000
C    -1.484000000    -0.616000000    -0.111000000
C    -2.940000000    -1.077000000    -0.060000000
O    -3.457000000    -1.078000000     1.034000000
O    -3.426000000    -1.418000000    -1.135000000
