14
-76.44226
C    -0.939000000    -1.045000000    -0.009000000
H    -1.495000000    -1.978000000     0.000000000
C     0.404000000    -1.188000000     0.175000000
H     0.745000000    -2.208000000     0.334000000
C     1.227000000    -0.117000000     0.139000000
H     2.279000000    -0.266000000     0.184000000
C     0.658000000     1.158000000    -0.073000000
H     1.259000000     2.064000000    -0.047000000
C    -0.744000000     1.271000000    -0.173000000
H    -1.178000000     2.222000000    -0.470000000
C    -1.537000000     0.157000000    -0.302000000
C    -2.999000000     0.206000000    -0.679000000
O    -3.764000000    -0.542000000    -0.151000000
O    -3.461000000     1.072000000    -1.346000000
