14
-86.01963
C    -0.749000000    -0.279000000     1.203000000
H    -1.265000000    -0.564000000     2.117000000
C     0.608000000    -0.223000000     1.158000000
H     1.293000000    -0.413000000     1.980000000
C     1.255000000     0.034000000     0.012000000
H     2.296000000     0.231000000    -0.143000000
C     0.458000000     0.438000000    -1.092000000
H     0.951000000     0.730000000    -2.016000000
C    -0.958000000     0.395000000    -1.068000000
H    -1.568000000     0.754000000    -1.894000000
C    -1.609000000     0.040000000     0.096000000
C    -3.108000000    -0.059000000     0.166000000
O    -3.640000000    -0.736000000     1.065000000
O    -3.809000000     0.358000000    -0.796000000
