14
-89.86655
C     0.588000000     1.372000000    -0.040000000
H     1.079000000     2.329000000     0.115000000
C     1.278000000     0.175000000     0.357000000
H     2.280000000     0.280000000     0.765000000
C     0.670000000    -1.045000000     0.263000000
H     1.119000000    -1.970000000     0.671000000
C    -0.661000000    -1.146000000    -0.186000000
H    -1.261000000    -2.052000000    -0.177000000
C    -1.387000000     0.049000000    -0.517000000
H    -2.402000000    -0.124000000    -0.866000000
C    -0.736000000     1.305000000    -0.507000000
C    -1.574000000     2.553000000    -0.674000000
O    -1.135000000     3.700000000    -0.614000000
O    -2.763000000     2.341000000    -1.068000000
