14
-77.81888
C     0.453000000    -1.276000000    -0.504000000
H     0.535000000    -2.308000000    -0.837000000
C    -0.497000000    -1.009000000     0.481000000
H    -0.942000000    -1.820000000     1.051000000
C    -0.807000000     0.297000000     0.898000000
H    -1.490000000     0.439000000     1.647000000
C    -0.214000000     1.362000000     0.177000000
H    -0.612000000     2.357000000     0.364000000
C     0.804000000     1.098000000    -0.718000000
H     1.195000000     1.954000000    -1.261000000
C     1.197000000    -0.242000000    -1.043000000
C     2.257000000    -0.648000000    -2.018000000
O     2.901000000     0.192000000    -2.514000000
O     2.474000000    -1.791000000    -2.295000000
