14
-87.74786
C     0.316000000     1.404000000     0.404000000
H     0.711000000     2.357000000     0.746000000
C     1.261000000     0.404000000     0.201000000
H     2.279000000     0.511000000     0.567000000
C     0.846000000    -0.897000000    -0.238000000
H     1.543000000    -1.780000000    -0.207000000
C    -0.528000000    -1.080000000    -0.589000000
H    -0.883000000    -2.062000000    -0.891000000
C    -1.416000000    -0.051000000    -0.393000000
H    -2.470000000    -0.239000000    -0.580000000
C    -1.012000000     1.187000000     0.112000000
C    -2.130000000     2.251000000     0.359000000
O    -1.898000000     3.416000000     0.629000000
O    -3.259000000     1.824000000     0.508000000
