14
-85.07739
C    -1.197000000     0.731000000     0.326000000
H    -2.066000000     1.361000000     0.497000000
C     0.044000000     1.303000000     0.179000000
H     0.317000000     2.353000000     0.242000000
C     1.166000000     0.468000000    -0.080000000
H     2.171000000     0.884000000    -0.150000000
C     0.971000000    -0.952000000    -0.131000000
H     1.863000000    -1.560000000    -0.259000000
C    -0.279000000    -1.507000000     0.024000000
H    -0.450000000    -2.567000000    -0.144000000
C    -1.391000000    -0.628000000     0.183000000
C    -2.816000000    -1.203000000     0.200000000
O    -3.653000000    -0.588000000     0.830000000
O    -3.191000000    -2.253000000    -0.276000000
