14
-86.56775
C    -0.970000000     0.477000000    -0.996000000
H    -1.668000000     1.019000000    -1.629000000
C    -0.037000000     1.246000000    -0.298000000
H    -0.250000000     2.312000000    -0.291000000
C     0.878000000     0.633000000     0.545000000
H     1.575000000     1.272000000     1.193000000
C     0.896000000    -0.722000000     0.667000000
H     1.610000000    -1.159000000     1.360000000
C    -0.103000000    -1.487000000     0.035000000
H     0.013000000    -2.567000000     0.084000000
C    -1.039000000    -0.912000000    -0.787000000
C    -2.000000000    -1.776000000    -1.549000000
O    -2.628000000    -1.235000000    -2.461000000
O    -2.337000000    -2.874000000    -1.154000000
