14
-81.93639
C    -1.118000000     1.013000000     0.013000000
H    -1.843000000     1.819000000     0.092000000
C     0.172000000     1.133000000     0.603000000
H     0.473000000     2.014000000     1.164000000
C     1.135000000     0.158000000     0.548000000
H     2.112000000     0.465000000     0.977000000
C     0.745000000    -1.060000000     0.006000000
H     1.390000000    -1.931000000     0.091000000
C    -0.506000000    -1.222000000    -0.572000000
H    -0.663000000    -2.092000000    -1.204000000
C    -1.482000000    -0.185000000    -0.582000000
C    -2.804000000    -0.368000000    -1.256000000
O    -3.736000000     0.423000000    -1.160000000
O    -2.918000000    -1.193000000    -2.130000000
