14
-85.57213
C    -0.027000000    -1.203000000    -0.814000000
H    -0.170000000    -2.154000000    -1.321000000
C    -0.830000000    -0.921000000     0.265000000
H    -1.536000000    -1.622000000     0.704000000
C    -0.748000000     0.287000000     0.939000000
H    -1.365000000     0.505000000     1.860000000
C     0.135000000     1.291000000     0.466000000
H     0.222000000     2.094000000     1.194000000
C     0.973000000     0.959000000    -0.650000000
H     1.665000000     1.698000000    -1.046000000
C     0.887000000    -0.261000000    -1.284000000
C     1.876000000    -0.736000000    -2.389000000
O     2.351000000     0.174000000    -3.031000000
O     2.083000000    -1.897000000    -2.714000000
