14
-78.49974
C    -1.359000000     0.160000000    -0.620000000
H    -2.119000000     0.779000000    -1.091000000
C    -1.027000000     0.596000000     0.696000000
H    -1.717000000     1.239000000     1.237000000
C     0.237000000     0.297000000     1.147000000
H     0.563000000     0.690000000     2.033000000
C     1.152000000    -0.402000000     0.380000000
H     2.109000000    -0.576000000     0.866000000
C     0.806000000    -0.800000000    -0.924000000
H     1.546000000    -1.364000000    -1.487000000
C    -0.452000000    -0.526000000    -1.419000000
C    -0.786000000    -1.040000000    -2.809000000
O    -1.908000000    -0.955000000    -3.281000000
O     0.114000000    -1.261000000    -3.648000000
