14
-88.52961
C    -1.310000000     0.146000000    -0.524000000
H    -2.265000000     0.509000000    -0.894000000
C    -0.713000000     0.909000000     0.432000000
H    -1.278000000     1.645000000     0.998000000
C     0.532000000     0.608000000     0.899000000
H     1.040000000     1.264000000     1.629000000
C     1.227000000    -0.490000000     0.408000000
H     2.223000000    -0.755000000     0.754000000
C     0.692000000    -1.164000000    -0.720000000
H     1.273000000    -1.911000000    -1.255000000
C    -0.596000000    -0.860000000    -1.153000000
C    -1.284000000    -1.571000000    -2.306000000
O    -2.421000000    -1.241000000    -2.615000000
O    -0.584000000    -2.237000000    -3.074000000
