14
-83.28325
C    -1.234000000     0.392000000    -0.760000000
H    -2.148000000     0.759000000    -1.221000000
C    -0.983000000     0.698000000     0.575000000
H    -1.676000000     1.322000000     1.134000000
C     0.197000000     0.289000000     1.161000000
H     0.398000000     0.450000000     2.225000000
C     1.148000000    -0.422000000     0.457000000
H     2.152000000    -0.621000000     0.825000000
C     0.905000000    -0.788000000    -0.897000000
H     1.741000000    -1.188000000    -1.465000000
C    -0.330000000    -0.403000000    -1.506000000
C    -0.600000000    -0.825000000    -2.948000000
O    -1.727000000    -0.965000000    -3.420000000
O     0.269000000    -1.258000000    -3.681000000
