14
-82.49903
C    -0.503000000    -1.263000000    -0.606000000
H    -0.962000000    -2.229000000    -0.800000000
C    -1.179000000    -0.404000000     0.244000000
H    -2.197000000    -0.535000000     0.602000000
C    -0.593000000     0.718000000     0.799000000
H    -1.143000000     1.322000000     1.504000000
C     0.644000000     1.069000000     0.373000000
H     1.040000000     2.036000000     0.672000000
C     1.328000000     0.234000000    -0.548000000
H     2.297000000     0.551000000    -0.925000000
C     0.748000000    -0.938000000    -0.983000000
C     1.553000000    -1.796000000    -1.918000000
O     2.632000000    -1.505000000    -2.482000000
O     0.976000000    -2.781000000    -2.337000000
