14
-86.97207
C     0.834000000    -1.238000000     0.011000000
H     1.349000000    -2.191000000    -0.082000000
C    -0.549000000    -1.043000000    -0.410000000
H    -1.109000000    -1.910000000    -0.751000000
C    -1.215000000     0.161000000    -0.458000000
H    -2.207000000     0.344000000    -0.897000000
C    -0.503000000     1.227000000     0.130000000
H    -1.021000000     2.161000000     0.331000000
C     0.829000000     1.069000000     0.569000000
H     1.208000000     1.968000000     1.050000000
C     1.506000000    -0.171000000     0.538000000
C     2.962000000    -0.347000000     0.930000000
O     3.416000000    -1.455000000     1.174000000
O     3.698000000     0.638000000     1.063000000
