14
-88.28021
C     0.096000000    -1.480000000    -0.087000000
H    -0.001000000    -2.556000000    -0.201000000
C    -0.704000000    -0.632000000    -0.862000000
H    -1.415000000    -1.101000000    -1.537000000
C    -0.753000000     0.732000000    -0.630000000
H    -1.508000000     1.365000000    -1.262000000
C     0.083000000     1.287000000     0.381000000
H     0.019000000     2.358000000     0.554000000
C     0.925000000     0.448000000     1.128000000
H     1.456000000     0.893000000     1.966000000
C     0.932000000    -0.949000000     0.860000000
C     1.954000000    -1.815000000     1.605000000
O     1.826000000    -3.005000000     1.691000000
O     3.039000000    -1.275000000     1.875000000
