14
-85.13895
C     0.996000000    -1.068000000     0.188000000
H     1.621000000    -1.941000000     0.356000000
C    -0.348000000    -1.241000000     0.072000000
H    -0.788000000    -2.234000000     0.032000000
C    -1.231000000    -0.156000000    -0.075000000
H    -2.350000000    -0.233000000     0.010000000
C    -0.667000000     1.119000000    -0.243000000
H    -1.253000000     2.026000000    -0.367000000
C     0.708000000     1.374000000    -0.128000000
H     1.074000000     2.396000000    -0.197000000
C     1.560000000     0.257000000     0.157000000
C     3.056000000     0.259000000     0.241000000
O     3.665000000    -0.692000000     0.694000000
O     3.681000000     1.156000000    -0.283000000
