14
-90.37864
C     0.153000000    -1.433000000    -0.531000000
H     0.236000000    -2.440000000    -0.933000000
C    -0.834000000    -0.455000000    -0.933000000
H    -1.506000000    -0.617000000    -1.772000000
C    -0.945000000     0.767000000    -0.266000000
H    -1.607000000     1.542000000    -0.651000000
C    -0.037000000     1.093000000     0.770000000
H    -0.060000000     2.075000000     1.237000000
C     0.954000000     0.196000000     1.145000000
H     1.645000000     0.458000000     1.943000000
C     1.068000000    -1.050000000     0.418000000
C     2.254000000    -1.906000000     0.800000000
O     2.372000000    -2.976000000     0.253000000
O     3.044000000    -1.546000000     1.660000000
