14
-89.34603
C     1.246000000    -0.748000000    -0.130000000
H     2.130000000    -1.380000000    -0.141000000
C     0.053000000    -1.360000000     0.139000000
H    -0.094000000    -2.396000000     0.436000000
C    -1.086000000    -0.525000000     0.168000000
H    -2.080000000    -0.948000000     0.388000000
C    -0.961000000     0.840000000     0.076000000
H    -1.854000000     1.444000000     0.218000000
C     0.174000000     1.419000000    -0.337000000
H     0.270000000     2.491000000    -0.489000000
C     1.345000000     0.608000000    -0.360000000
C     2.740000000     1.258000000    -0.634000000
O     3.693000000     0.509000000    -0.815000000
O     2.818000000     2.467000000    -0.753000000
