14
-86.16788
C    -0.290000000     1.217000000     0.809000000
H    -0.602000000     2.060000000     1.419000000
C    -1.044000000     0.012000000     0.785000000
H    -1.812000000    -0.152000000     1.537000000
C    -0.687000000    -1.038000000    -0.066000000
H    -1.156000000    -1.971000000    -0.022000000
C     0.452000000    -0.890000000    -0.863000000
H     0.734000000    -1.678000000    -1.557000000
C     1.211000000     0.296000000    -0.843000000
H     2.143000000     0.306000000    -1.401000000
C     0.818000000     1.386000000    -0.028000000
C     1.536000000     2.693000000     0.045000000
O     1.341000000     3.410000000     0.976000000
O     2.384000000     2.917000000    -0.761000000
