14
-84.46710
C    -0.063000000     1.264000000     0.690000000
H    -0.172000000     2.113000000     1.359000000
C    -0.708000000     0.077000000     1.054000000
H    -1.238000000     0.016000000     2.001000000
C    -0.667000000    -1.040000000     0.219000000
H    -1.212000000    -1.886000000     0.486000000
C     0.177000000    -1.051000000    -0.849000000
H     0.456000000    -1.897000000    -1.471000000
C     0.872000000     0.150000000    -1.166000000
H     1.597000000     0.198000000    -1.974000000
C     0.788000000     1.311000000    -0.365000000
C     1.509000000     2.580000000    -0.825000000
O     1.675000000     3.471000000    -0.057000000
O     2.012000000     2.657000000    -1.934000000
