14
-88.68606
C    -0.125000000     1.305000000     0.656000000
H    -0.359000000     2.149000000     1.300000000
C    -0.761000000     0.114000000     1.125000000
H    -1.456000000     0.025000000     1.956000000
C    -0.512000000    -1.035000000     0.390000000
H    -0.991000000    -2.031000000     0.683000000
C     0.193000000    -1.028000000    -0.789000000
H     0.201000000    -1.913000000    -1.420000000
C     0.765000000     0.197000000    -1.217000000
H     1.328000000     0.296000000    -2.142000000
C     0.748000000     1.370000000    -0.432000000
C     1.401000000     2.672000000    -0.914000000
O     1.453000000     3.642000000    -0.127000000
O     1.985000000     2.651000000    -1.974000000
