14
-89.03603
C     0.039000000     1.228000000     0.843000000
H    -0.150000000     2.062000000     1.513000000
C    -0.221000000    -0.085000000     1.306000000
H    -0.489000000    -0.299000000     2.338000000
C    -0.242000000    -1.133000000     0.458000000
H    -0.321000000    -2.106000000     0.878000000
C     0.140000000    -0.930000000    -0.857000000
H     0.255000000    -1.806000000    -1.491000000
C     0.390000000     0.388000000    -1.352000000
H     0.796000000     0.505000000    -2.354000000
C     0.289000000     1.496000000    -0.518000000
C     0.607000000     2.846000000    -1.053000000
O     0.787000000     3.767000000    -0.242000000
O     0.568000000     3.068000000    -2.272000000
