14
-84.24887
C     1.000000000     1.064000000     0.029000000
H     1.772000000     1.827000000     0.082000000
C     0.911000000     0.063000000     0.974000000
H     1.645000000    -0.079000000     1.764000000
C    -0.032000000    -0.922000000     0.813000000
H    -0.027000000    -1.846000000     1.474000000
C    -0.999000000    -0.773000000    -0.190000000
H    -1.837000000    -1.465000000    -0.215000000
C    -0.976000000     0.301000000    -1.048000000
H    -1.779000000     0.246000000    -1.778000000
C     0.060000000     1.177000000    -1.004000000
C     0.187000000     2.244000000    -2.049000000
O     1.253000000     2.597000000    -2.548000000
O    -0.832000000     2.699000000    -2.472000000
