14
-88.60951
C     1.303000000    -0.133000000    -0.644000000
H     2.329000000    -0.255000000    -0.984000000
C     1.036000000    -0.045000000     0.707000000
H     1.929000000    -0.074000000     1.327000000
C    -0.223000000     0.082000000     1.240000000
H    -0.362000000     0.084000000     2.312000000
C    -1.288000000     0.141000000     0.327000000
H    -2.331000000     0.266000000     0.609000000
C    -1.060000000     0.069000000    -1.046000000
H    -1.925000000     0.136000000    -1.702000000
C     0.258000000    -0.064000000    -1.579000000
C     0.589000000    -0.262000000    -3.035000000
O     1.719000000     0.047000000    -3.383000000
O    -0.344000000    -0.311000000    -3.823000000
