14
-80.92306
C     0.481000000     0.288000000    -1.313000000
H     0.847000000     0.762000000    -2.220000000
C     1.266000000     0.094000000    -0.197000000
H     2.339000000     0.150000000    -0.361000000
C     0.678000000    -0.105000000     1.041000000
H     1.212000000    -0.097000000     2.034000000
C    -0.680000000    -0.403000000     1.064000000
H    -1.223000000    -0.549000000     1.995000000
C    -1.444000000    -0.357000000    -0.111000000
H    -2.460000000    -0.743000000    -0.072000000
C    -0.895000000     0.153000000    -1.279000000
C    -1.650000000     0.384000000    -2.565000000
O    -1.041000000     0.626000000    -3.575000000
O    -2.824000000     0.338000000    -2.561000000
