14
-86.01588
C     0.401000000     0.371000000     1.355000000
H     0.628000000     0.544000000     2.403000000
C    -0.115000000    -0.845000000     1.059000000
H    -0.299000000    -1.527000000     1.885000000
C    -0.359000000    -1.114000000    -0.277000000
H    -0.781000000    -2.022000000    -0.591000000
C    -0.150000000    -0.176000000    -1.263000000
H    -0.385000000    -0.461000000    -2.286000000
C     0.209000000     1.118000000    -0.912000000
H     0.275000000     1.908000000    -1.656000000
C     0.479000000     1.380000000     0.411000000
C     0.901000000     2.779000000     0.835000000
O     1.052000000     3.091000000     2.005000000
O     1.044000000     3.627000000    -0.003000000
