14
-81.78065
C    -0.941000000    -1.001000000    -0.770000000
H    -1.656000000    -1.747000000    -1.111000000
C    -1.366000000    -0.063000000     0.195000000
H    -2.409000000     0.020000000     0.493000000
C    -0.428000000     0.827000000     0.752000000
H    -0.803000000     1.383000000     1.665000000
C     0.902000000     0.778000000     0.361000000
H     1.607000000     1.407000000     0.898000000
C     1.297000000    -0.059000000    -0.648000000
H     2.351000000    -0.074000000    -0.912000000
C     0.405000000    -0.999000000    -1.108000000
C     1.013000000    -2.070000000    -2.015000000
O     2.113000000    -2.000000000    -2.604000000
O     0.261000000    -2.913000000    -2.403000000
