14
-84.47525
C     1.372000000     0.524000000     0.168000000
H     2.407000000     0.748000000     0.410000000
C     0.764000000    -0.566000000     0.870000000
H     1.369000000    -1.025000000     1.647000000
C    -0.577000000    -0.933000000     0.659000000
H    -1.038000000    -1.750000000     1.243000000
C    -1.220000000    -0.263000000    -0.347000000
H    -2.262000000    -0.524000000    -0.512000000
C    -0.564000000     0.733000000    -1.170000000
H    -1.105000000     1.192000000    -1.994000000
C     0.684000000     1.193000000    -0.865000000
C     1.305000000     2.260000000    -1.749000000
O     2.401000000     2.742000000    -1.443000000
O     0.916000000     2.363000000    -2.873000000
