14
-85.49514
C     0.310000000    -0.867000000    -1.158000000
H     0.573000000    -1.480000000    -2.016000000
C     1.193000000    -0.607000000    -0.081000000
H     2.219000000    -0.960000000    -0.018000000
C     0.809000000     0.293000000     0.893000000
H     1.458000000     0.599000000     1.671000000
C    -0.486000000     0.766000000     0.928000000
H    -0.797000000     1.285000000     1.831000000
C    -1.353000000     0.477000000    -0.122000000
H    -2.360000000     0.849000000     0.052000000
C    -0.941000000    -0.286000000    -1.193000000
C    -1.865000000    -0.477000000    -2.423000000
O    -1.503000000    -1.250000000    -3.285000000
O    -2.980000000    -0.011000000    -2.540000000
