14
-86.57802
C     0.616000000    -0.019000000    -1.384000000
H     1.206000000     0.052000000    -2.295000000
C     1.101000000     0.595000000    -0.247000000
H     2.073000000     1.082000000    -0.230000000
C     0.480000000     0.528000000     0.982000000
H     0.927000000     0.961000000     1.964000000
C    -0.707000000    -0.146000000     1.091000000
H    -1.127000000    -0.195000000     2.092000000
C    -1.309000000    -0.717000000    -0.073000000
H    -2.224000000    -1.296000000     0.023000000
C    -0.640000000    -0.612000000    -1.344000000
C    -1.204000000    -1.278000000    -2.558000000
O    -0.483000000    -1.777000000    -3.420000000
O    -2.405000000    -1.374000000    -2.655000000
