14
-80.31558
C     0.491000000     0.795000000    -1.188000000
H     0.987000000     1.189000000    -2.071000000
C     1.255000000     0.529000000    -0.056000000
H     2.274000000     0.890000000     0.052000000
C     0.705000000    -0.210000000     0.962000000
H     1.362000000    -0.604000000     1.797000000
C    -0.660000000    -0.589000000     0.943000000
H    -1.016000000    -1.182000000     1.782000000
C    -1.444000000    -0.264000000    -0.185000000
H    -2.489000000    -0.557000000    -0.129000000
C    -0.885000000     0.397000000    -1.249000000
C    -1.681000000     0.596000000    -2.486000000
O    -1.130000000     0.708000000    -3.516000000
O    -2.871000000     0.600000000    -2.443000000
