14
-91.16835
C     0.486000000     0.867000000    -1.036000000
H     0.914000000     1.549000000    -1.766000000
C     1.151000000     0.693000000     0.205000000
H     2.007000000     1.314000000     0.456000000
C     0.611000000    -0.282000000     1.036000000
H     1.137000000    -0.442000000     2.016000000
C    -0.536000000    -0.956000000     0.678000000
H    -0.886000000    -1.699000000     1.389000000
C    -1.209000000    -0.787000000    -0.552000000
H    -2.040000000    -1.434000000    -0.818000000
C    -0.717000000     0.252000000    -1.384000000
C    -1.439000000     0.590000000    -2.701000000
O    -1.309000000     1.767000000    -3.040000000
O    -2.142000000    -0.194000000    -3.294000000
