14
-93.38922
C     0.812000000     0.995000000    -0.758000000
H     1.501000000     1.647000000    -1.288000000
C     1.100000000     0.499000000     0.458000000
H     2.045000000     0.789000000     0.910000000
C     0.260000000    -0.410000000     1.149000000
H     0.586000000    -0.886000000     2.085000000
C    -0.904000000    -0.819000000     0.494000000
H    -1.549000000    -1.502000000     1.041000000
C    -1.213000000    -0.299000000    -0.770000000
H    -2.170000000    -0.459000000    -1.261000000
C    -0.357000000     0.544000000    -1.446000000
C    -0.633000000     0.879000000    -2.923000000
O     0.298000000     1.276000000    -3.584000000
O    -1.773000000     0.641000000    -3.345000000
