14
-77.79898
C     0.833000000     0.663000000    -1.042000000
H     1.546000000     1.031000000    -1.775000000
C     1.343000000     0.111000000     0.126000000
H     2.388000000     0.054000000     0.422000000
C     0.473000000    -0.504000000     1.001000000
H     0.833000000    -0.890000000     1.879000000
C    -0.942000000    -0.449000000     0.749000000
H    -1.619000000    -0.845000000     1.501000000
C    -1.455000000     0.104000000    -0.393000000
H    -2.533000000     0.118000000    -0.525000000
C    -0.567000000     0.676000000    -1.319000000
C    -1.100000000     1.267000000    -2.574000000
O    -0.430000000     2.053000000    -3.173000000
O    -2.227000000     1.110000000    -2.807000000
