14
-78.38674
C     0.663000000     1.012000000    -0.915000000
H     1.221000000     1.795000000    -1.422000000
C     1.117000000     0.651000000     0.357000000
H     2.068000000     1.067000000     0.680000000
C     0.489000000    -0.351000000     1.079000000
H     0.845000000    -0.730000000     2.041000000
C    -0.651000000    -0.971000000     0.531000000
H    -1.205000000    -1.739000000     1.065000000
C    -1.148000000    -0.531000000    -0.695000000
H    -2.037000000    -0.977000000    -1.133000000
C    -0.502000000     0.512000000    -1.385000000
C    -1.128000000     1.125000000    -2.643000000
O    -0.826000000     2.149000000    -3.161000000
O    -2.026000000     0.544000000    -3.139000000
