14
-79.25968
C    -0.295000000    -1.294000000    -0.637000000
H    -0.727000000    -2.160000000    -1.132000000
C    -1.191000000    -0.554000000     0.073000000
H    -2.182000000    -0.876000000     0.384000000
C    -0.864000000     0.618000000     0.623000000
H    -1.509000000     1.059000000     1.307000000
C     0.472000000     1.138000000     0.446000000
H     0.756000000     2.105000000     0.852000000
C     1.369000000     0.417000000    -0.266000000
H     2.375000000     0.811000000    -0.388000000
C     1.052000000    -0.856000000    -0.808000000
C     2.050000000    -1.765000000    -1.541000000
O     3.104000000    -1.321000000    -2.025000000
O     1.910000000    -2.972000000    -1.669000000
