14
-77.62971
C     0.181000000    -0.725000000    -1.287000000
H     0.334000000    -1.371000000    -2.147000000
C     0.880000000    -1.018000000    -0.144000000
H     1.656000000    -1.775000000    -0.073000000
C     0.617000000    -0.320000000     0.973000000
H     1.186000000    -0.512000000     1.884000000
C    -0.241000000     0.767000000     0.974000000
H    -0.321000000     1.353000000     1.887000000
C    -0.980000000     1.078000000    -0.161000000
H    -1.589000000     1.979000000    -0.186000000
C    -0.817000000     0.245000000    -1.320000000
C    -1.590000000     0.554000000    -2.591000000
O    -1.902000000    -0.363000000    -3.287000000
O    -2.213000000     1.571000000    -2.737000000
