14
-83.68152
C     0.009000000    -1.146000000    -1.008000000
H     0.126000000    -2.022000000    -1.642000000
C     0.989000000    -0.934000000    -0.062000000
H     1.720000000    -1.705000000     0.169000000
C     0.928000000     0.128000000     0.765000000
H     1.727000000     0.193000000     1.524000000
C    -0.086000000     1.045000000     0.625000000
H    -0.006000000     1.903000000     1.289000000
C    -1.133000000     0.825000000    -0.227000000
H    -1.974000000     1.509000000    -0.145000000
C    -1.119000000    -0.225000000    -1.136000000
C    -2.283000000    -0.391000000    -2.120000000
O    -2.376000000    -1.420000000    -2.746000000
O    -3.101000000     0.484000000    -2.239000000
