14
-88.62327
C     0.067000000    -1.122000000    -0.991000000
H     0.326000000    -2.009000000    -1.564000000
C     0.928000000    -0.829000000     0.072000000
H     1.662000000    -1.606000000     0.272000000
C     0.781000000     0.257000000     0.938000000
H     1.518000000     0.555000000     1.687000000
C    -0.271000000     1.097000000     0.788000000
H    -0.458000000     1.962000000     1.419000000
C    -1.236000000     0.750000000    -0.204000000
H    -2.110000000     1.393000000    -0.268000000
C    -1.021000000    -0.278000000    -1.162000000
C    -1.970000000    -0.525000000    -2.419000000
O    -1.519000000    -1.073000000    -3.461000000
O    -3.075000000     0.021000000    -2.362000000
