14
-79.26362
C     1.315000000    -0.342000000    -0.476000000
H     2.358000000    -0.600000000    -0.639000000
C     1.047000000     0.122000000     0.756000000
H     1.843000000     0.206000000     1.491000000
C    -0.255000000     0.494000000     1.065000000
H    -0.428000000     0.827000000     2.107000000
C    -1.312000000     0.280000000     0.151000000
H    -2.331000000     0.421000000     0.503000000
C    -1.044000000    -0.133000000    -1.150000000
H    -1.827000000    -0.218000000    -1.899000000
C     0.297000000    -0.511000000    -1.494000000
C     0.648000000    -1.010000000    -2.855000000
O     1.738000000    -1.490000000    -3.107000000
O    -0.119000000    -0.890000000    -3.729000000
