14
-85.59786
C     0.286000000    -1.355000000    -0.677000000
H     0.592000000    -2.318000000    -1.080000000
C     0.400000000    -1.054000000     0.714000000
H     0.680000000    -1.782000000     1.472000000
C     0.194000000     0.195000000     1.176000000
H     0.244000000     0.394000000     2.203000000
C    -0.083000000     1.239000000     0.283000000
H    -0.220000000     2.245000000     0.670000000
C    -0.313000000     0.997000000    -1.039000000
H    -0.707000000     1.809000000    -1.644000000
C    -0.197000000    -0.303000000    -1.574000000
C    -0.514000000    -0.557000000    -2.991000000
O    -0.203000000    -1.626000000    -3.498000000
O    -1.133000000     0.279000000    -3.602000000
