14
-84.60155
C    -0.475000000    -1.407000000     0.363000000
H    -0.749000000    -2.407000000     0.688000000
C     0.364000000    -0.688000000     1.190000000
H     0.848000000    -1.068000000     2.087000000
C     0.759000000     0.650000000     0.703000000
H     1.511000000     1.169000000     1.225000000
C     0.168000000     1.189000000    -0.449000000
H     0.471000000     2.166000000    -0.817000000
C    -0.664000000     0.463000000    -1.247000000
H    -1.059000000     0.916000000    -2.152000000
C    -0.990000000    -0.853000000    -0.824000000
C    -1.918000000    -1.612000000    -1.729000000
O    -1.855000000    -2.826000000    -1.775000000
O    -2.641000000    -1.057000000    -2.536000000
