14
-82.69799
C     0.756000000    -1.208000000    -0.034000000
H     1.356000000    -2.114000000    -0.053000000
C     0.839000000    -0.253000000     1.020000000
H     1.524000000    -0.344000000     1.859000000
C    -0.012000000     0.844000000     0.982000000
H     0.029000000     1.538000000     1.788000000
C    -0.867000000     0.967000000    -0.143000000
H    -1.613000000     1.755000000    -0.193000000
C    -0.895000000     0.017000000    -1.157000000
H    -1.527000000     0.174000000    -2.027000000
C    -0.137000000    -1.133000000    -1.119000000
C    -0.086000000    -2.184000000    -2.240000000
O     0.734000000    -3.032000000    -2.314000000
O    -0.932000000    -2.107000000    -3.072000000
