14
-88.27801
C     0.846000000    -1.232000000     0.083000000
H     1.424000000    -2.122000000     0.320000000
C     0.818000000    -0.252000000     1.070000000
H     1.380000000    -0.333000000     1.998000000
C    -0.038000000     0.838000000     0.930000000
H    -0.165000000     1.540000000     1.741000000
C    -0.837000000     0.908000000    -0.244000000
H    -1.524000000     1.747000000    -0.316000000
C    -0.667000000     0.034000000    -1.322000000
H    -1.371000000     0.072000000    -2.150000000
C     0.066000000    -1.162000000    -1.095000000
C     0.148000000    -2.157000000    -2.266000000
O     0.820000000    -3.193000000    -2.243000000
O    -0.380000000    -1.841000000    -3.364000000
