14
-84.88713
C     0.609000000    -1.303000000    -0.397000000
H     1.152000000    -2.190000000    -0.713000000
C     0.755000000    -0.639000000     0.800000000
H     1.440000000    -1.015000000     1.555000000
C     0.196000000     0.614000000     1.044000000
H     0.419000000     1.220000000     1.976000000
C    -0.619000000     1.163000000     0.120000000
H    -1.095000000     2.120000000     0.323000000
C    -0.978000000     0.415000000    -1.050000000
H    -1.638000000     0.845000000    -1.799000000
C    -0.383000000    -0.825000000    -1.309000000
C    -0.587000000    -1.552000000    -2.585000000
O     0.103000000    -2.526000000    -2.961000000
O    -1.314000000    -1.021000000    -3.367000000
