14
-86.06280
C     0.397000000    -1.419000000     0.244000000
H     0.770000000    -2.420000000     0.444000000
C     1.262000000    -0.461000000    -0.269000000
H     2.241000000    -0.762000000    -0.632000000
C     0.813000000     0.821000000    -0.477000000
H     1.507000000     1.508000000    -0.900000000
C    -0.519000000     1.204000000    -0.056000000
H    -0.953000000     2.200000000    -0.085000000
C    -1.350000000     0.252000000     0.439000000
H    -2.375000000     0.506000000     0.696000000
C    -0.949000000    -1.072000000     0.629000000
C    -1.880000000    -2.121000000     1.155000000
O    -1.632000000    -3.305000000     0.999000000
O    -2.970000000    -1.841000000     1.627000000
