14
-82.30915
C    -0.068000000    -1.040000000     1.008000000
H     0.023000000    -1.674000000     1.885000000
C     0.994000000    -0.200000000     0.795000000
H     1.844000000    -0.156000000     1.471000000
C     0.904000000     0.795000000    -0.171000000
H     1.739000000     1.418000000    -0.230000000
C    -0.222000000     0.940000000    -0.974000000
H    -0.433000000     1.776000000    -1.635000000
C    -1.206000000    -0.057000000    -0.900000000
H    -1.995000000    -0.044000000    -1.648000000
C    -1.153000000    -1.061000000     0.098000000
C    -2.218000000    -2.079000000     0.175000000
O    -2.140000000    -2.992000000     1.012000000
O    -3.108000000    -2.172000000    -0.610000000
