14
-85.24126
C    -0.732000000    -1.056000000     0.810000000
H    -1.124000000    -1.884000000     1.396000000
C     0.369000000    -0.262000000     1.275000000
H     0.745000000    -0.410000000     2.284000000
C     0.871000000     0.733000000     0.493000000
H     1.628000000     1.409000000     0.892000000
C     0.412000000     0.931000000    -0.713000000
H     0.783000000     1.723000000    -1.358000000
C    -0.653000000     0.178000000    -1.224000000
H    -1.054000000     0.334000000    -2.222000000
C    -1.262000000    -0.851000000    -0.461000000
C    -2.355000000    -1.674000000    -1.090000000
O    -3.118000000    -2.284000000    -0.326000000
O    -2.423000000    -1.876000000    -2.288000000
