14
-81.29618
C    -0.498000000    -1.199000000    -0.641000000
H    -0.533000000    -2.178000000    -1.113000000
C     0.374000000    -0.248000000    -1.187000000
H     0.760000000    -0.315000000    -2.201000000
C     0.715000000     0.854000000    -0.500000000
H     1.379000000     1.590000000    -0.970000000
C     0.203000000     1.062000000     0.769000000
H     0.525000000     1.967000000     1.279000000
C    -0.541000000     0.076000000     1.450000000
H    -0.889000000     0.179000000     2.475000000
C    -0.918000000    -1.114000000     0.730000000
C    -1.713000000    -2.240000000     1.334000000
O    -2.568000000    -2.768000000     0.684000000
O    -1.526000000    -2.523000000     2.477000000
