14
-86.06371
C     0.287000000    -0.977000000     1.188000000
H     0.452000000    -1.861000000     1.799000000
C     0.989000000    -0.824000000    -0.023000000
H     1.753000000    -1.573000000    -0.215000000
C     0.700000000     0.114000000    -0.998000000
H     1.115000000     0.074000000    -2.027000000
C    -0.353000000     0.969000000    -0.818000000
H    -0.630000000     1.686000000    -1.586000000
C    -1.060000000     0.874000000     0.349000000
H    -1.856000000     1.603000000     0.479000000
C    -0.836000000    -0.128000000     1.353000000
C    -1.721000000    -0.201000000     2.545000000
O    -1.736000000    -1.274000000     3.119000000
O    -2.214000000     0.813000000     2.979000000
