14
-92.18907
C     0.022000000    -0.954000000     1.068000000
H     0.149000000    -1.752000000     1.795000000
C     0.921000000    -0.806000000    -0.005000000
H     1.695000000    -1.563000000    -0.100000000
C     0.699000000     0.101000000    -1.001000000
H     1.363000000     0.115000000    -1.870000000
C    -0.328000000     1.041000000    -0.862000000
H    -0.351000000     1.782000000    -1.658000000
C    -1.112000000     0.971000000     0.303000000
H    -1.922000000     1.679000000     0.459000000
C    -0.978000000    -0.044000000     1.255000000
C    -1.923000000    -0.208000000     2.440000000
O    -1.691000000    -1.113000000     3.263000000
O    -2.983000000     0.423000000     2.503000000
