14
-83.36175
C     0.088000000    -1.255000000     0.746000000
H     0.270000000    -2.238000000     1.173000000
C     0.186000000    -1.111000000    -0.654000000
H     0.550000000    -1.985000000    -1.189000000
C     0.023000000     0.047000000    -1.281000000
H     0.174000000     0.118000000    -2.307000000
C    -0.226000000     1.143000000    -0.437000000
H    -0.122000000     2.137000000    -0.866000000
C    -0.490000000     1.031000000     0.874000000
H    -0.735000000     1.886000000     1.498000000
C    -0.312000000    -0.146000000     1.571000000
C    -0.272000000    -0.341000000     3.075000000
O     0.347000000    -1.243000000     3.588000000
O    -0.825000000     0.553000000     3.748000000
