14
-85.94658
C     1.276000000     0.472000000     0.617000000
H     2.132000000     0.942000000     1.094000000
C     0.024000000     1.074000000     0.673000000
H    -0.116000000     1.977000000     1.261000000
C    -1.116000000     0.532000000     0.042000000
H    -2.013000000     1.169000000     0.136000000
C    -0.983000000    -0.568000000    -0.711000000
H    -1.849000000    -0.925000000    -1.261000000
C     0.290000000    -1.175000000    -0.874000000
H     0.379000000    -2.101000000    -1.437000000
C     1.424000000    -0.622000000    -0.208000000
C     2.799000000    -1.332000000    -0.350000000
O     2.834000000    -2.541000000    -0.429000000
O     3.836000000    -0.731000000    -0.303000000
