14
-85.40853
C    -1.079000000     0.186000000     1.003000000
H    -2.085000000     0.160000000     1.414000000
C    -0.687000000    -1.015000000     0.346000000
H    -1.251000000    -1.926000000     0.528000000
C     0.426000000    -1.080000000    -0.445000000
H     0.768000000    -2.045000000    -0.864000000
C     1.251000000     0.061000000    -0.532000000
H     2.184000000     0.085000000    -1.088000000
C     0.812000000     1.310000000    -0.025000000
H     1.312000000     2.258000000    -0.205000000
C    -0.411000000     1.384000000     0.709000000
C    -1.018000000     2.653000000     1.136000000
O    -2.163000000     2.629000000     1.582000000
O    -0.525000000     3.725000000     0.833000000
