14
-87.77891
C    -1.302000000    -0.458000000     0.234000000
H    -2.341000000    -0.741000000     0.385000000
C    -0.761000000    -0.170000000    -0.997000000
H    -1.330000000    -0.442000000    -1.883000000
C     0.539000000     0.200000000    -1.102000000
H     1.020000000     0.385000000    -2.075000000
C     1.300000000     0.414000000     0.029000000
H     2.319000000     0.790000000     0.049000000
C     0.719000000     0.168000000     1.285000000
H     1.345000000     0.458000000     2.126000000
C    -0.581000000    -0.342000000     1.379000000
C    -1.132000000    -0.547000000     2.774000000
O    -2.189000000    -1.163000000     3.022000000
O    -0.432000000    -0.182000000     3.778000000
