14
-82.11328
C    -1.229000000    -0.635000000    -0.301000000
H    -2.116000000    -1.178000000    -0.619000000
C    -0.169000000    -0.618000000    -1.114000000
H    -0.067000000    -1.207000000    -2.022000000
C     0.987000000     0.058000000    -0.753000000
H     1.817000000     0.209000000    -1.474000000
C     1.022000000     0.800000000     0.425000000
H     1.880000000     1.432000000     0.637000000
C    -0.097000000     0.729000000     1.287000000
H    -0.220000000     1.392000000     2.140000000
C    -1.273000000     0.030000000     0.899000000
C    -2.512000000    -0.181000000     1.821000000
O    -3.609000000    -0.545000000     1.339000000
O    -2.355000000    -0.294000000     2.999000000
