14
-89.17642
C    -1.190000000     0.067000000     0.904000000
H    -2.038000000    -0.025000000     1.579000000
C    -0.689000000    -1.104000000     0.269000000
H    -1.298000000    -1.994000000     0.402000000
C     0.500000000    -1.034000000    -0.478000000
H     0.843000000    -1.922000000    -1.085000000
C     1.153000000     0.171000000    -0.605000000
H     2.075000000     0.195000000    -1.180000000
C     0.636000000     1.351000000    -0.018000000
H     1.114000000     2.294000000    -0.269000000
C    -0.601000000     1.325000000     0.718000000
C    -1.179000000     2.571000000     1.330000000
O    -2.280000000     2.433000000     1.945000000
O    -0.778000000     3.640000000     0.962000000
