14
-83.68693
C    -0.921000000    -0.388000000     1.026000000
H    -1.549000000    -0.872000000     1.770000000
C    -0.584000000    -1.132000000    -0.076000000
H    -1.081000000    -2.084000000    -0.244000000
C     0.403000000    -0.673000000    -0.946000000
H     0.721000000    -1.376000000    -1.834000000
C     1.044000000     0.507000000    -0.662000000
H     1.848000000     0.737000000    -1.357000000
C     0.597000000     1.369000000     0.325000000
H     1.083000000     2.301000000     0.603000000
C    -0.398000000     0.894000000     1.224000000
C    -0.886000000     1.724000000     2.368000000
O    -1.183000000     1.100000000     3.343000000
O    -0.660000000     2.947000000     2.427000000
