14
-81.44388
C    -0.088000000    -0.216000000     1.395000000
H    -0.293000000    -0.527000000     2.416000000
C    -0.349000000    -1.170000000     0.426000000
H    -0.641000000    -2.159000000     0.770000000
C    -0.280000000    -0.808000000    -0.903000000
H    -0.550000000    -1.629000000    -1.641000000
C     0.148000000     0.496000000    -1.259000000
H     0.202000000     0.779000000    -2.307000000
C     0.489000000     1.468000000    -0.233000000
H     0.835000000     2.472000000    -0.464000000
C     0.265000000     1.121000000     1.109000000
C     0.514000000     2.125000000     2.195000000
O     0.683000000     1.706000000     3.341000000
O     0.964000000     3.223000000     1.967000000
