14
-92.45507
C     1.445000000    -0.142000000     0.185000000
H     2.522000000    -0.103000000     0.329000000
C     0.669000000     0.872000000     0.737000000
H     1.090000000     1.580000000     1.445000000
C    -0.678000000     0.910000000     0.492000000
H    -1.274000000     1.748000000     1.011000000
C    -1.238000000    -0.096000000    -0.254000000
H    -2.304000000    -0.102000000    -0.463000000
C    -0.452000000    -1.120000000    -0.834000000
H    -0.845000000    -1.861000000    -1.525000000
C     0.906000000    -1.144000000    -0.613000000
C     1.786000000    -2.146000000    -1.347000000
O     1.352000000    -3.243000000    -1.754000000
O     2.997000000    -1.859000000    -1.342000000
