14
-86.29187
C    -0.261000000    -0.893000000     1.179000000
H    -0.410000000    -1.556000000     2.028000000
C    -0.049000000    -1.284000000    -0.149000000
H    -0.105000000    -2.320000000    -0.474000000
C     0.163000000    -0.372000000    -1.194000000
H     0.398000000    -0.624000000    -2.244000000
C     0.202000000     0.959000000    -0.846000000
H     0.462000000     1.711000000    -1.586000000
C    -0.042000000     1.381000000     0.487000000
H    -0.079000000     2.445000000     0.705000000
C    -0.273000000     0.494000000     1.466000000
C    -0.629000000     1.061000000     2.828000000
O    -0.856000000     0.330000000     3.759000000
O    -0.593000000     2.254000000     3.042000000
