14
-87.12339
C     0.474000000    -0.202000000     1.412000000
H     0.851000000    -0.455000000     2.399000000
C    -0.040000000    -1.176000000     0.547000000
H    -0.150000000    -2.188000000     0.927000000
C    -0.409000000    -0.909000000    -0.768000000
H    -0.741000000    -1.751000000    -1.373000000
C    -0.366000000     0.425000000    -1.164000000
H    -0.800000000     0.707000000    -2.120000000
C     0.097000000     1.489000000    -0.312000000
H     0.271000000     2.451000000    -0.788000000
C     0.508000000     1.184000000     0.995000000
C     1.298000000     2.197000000     1.746000000
O     1.784000000     1.855000000     2.833000000
O     1.498000000     3.292000000     1.305000000
