14
-89.47763
C    -0.900000000    -0.410000000     1.185000000
H    -1.547000000    -0.705000000     2.007000000
C    -0.893000000    -1.003000000    -0.083000000
H    -1.561000000    -1.845000000    -0.246000000
C     0.050000000    -0.596000000    -1.056000000
H     0.139000000    -1.129000000    -2.091000000
C     0.876000000     0.453000000    -0.800000000
H     1.534000000     0.755000000    -1.612000000
C     0.784000000     1.172000000     0.408000000
H     1.518000000     1.954000000     0.586000000
C    -0.117000000     0.746000000     1.406000000
C    -0.083000000     1.498000000     2.718000000
O    -0.926000000     1.206000000     3.577000000
O     0.723000000     2.367000000     2.933000000
