14
-90.50984
C    -0.025000000    -1.088000000     0.915000000
H    -0.209000000    -1.937000000     1.568000000
C    -0.904000000    -0.849000000    -0.112000000
H    -1.677000000    -1.586000000    -0.312000000
C    -0.770000000     0.200000000    -0.932000000
H    -1.455000000     0.385000000    -1.774000000
C     0.294000000     1.035000000    -0.705000000
H     0.451000000     1.835000000    -1.424000000
C     1.128000000     0.912000000     0.375000000
H     1.964000000     1.563000000     0.620000000
C     1.030000000    -0.240000000     1.166000000
C     1.868000000    -0.453000000     2.390000000
O     1.419000000    -1.288000000     3.178000000
O     2.965000000     0.166000000     2.498000000
