14
-88.06089
C     1.432000000     0.411000000    -0.400000000
H     2.437000000     0.804000000    -0.532000000
C     0.390000000     1.233000000    -0.112000000
H     0.492000000     2.309000000    -0.230000000
C    -0.895000000     0.729000000     0.276000000
H    -1.721000000     1.398000000     0.493000000
C    -1.072000000    -0.591000000     0.400000000
H    -2.028000000    -0.981000000     0.739000000
C    -0.057000000    -1.465000000    -0.054000000
H    -0.276000000    -2.526000000     0.026000000
C     1.190000000    -0.955000000    -0.444000000
C     2.284000000    -1.901000000    -0.792000000
O     2.112000000    -3.014000000    -0.374000000
O     3.164000000    -1.556000000    -1.583000000
