14
-89.52701
C     0.520000000    -1.225000000     0.554000000
H     1.093000000    -2.115000000     0.799000000
C     0.088000000    -1.043000000    -0.780000000
H     0.232000000    -1.799000000    -1.547000000
C    -0.335000000     0.191000000    -1.148000000
H    -0.695000000     0.363000000    -2.182000000
C    -0.388000000     1.226000000    -0.187000000
H    -0.728000000     2.187000000    -0.566000000
C    -0.076000000     0.987000000     1.117000000
H    -0.144000000     1.823000000     1.809000000
C     0.467000000    -0.207000000     1.485000000
C     0.906000000    -0.580000000     2.853000000
O     1.086000000    -1.807000000     3.085000000
O     1.111000000     0.284000000     3.701000000
