14
-84.34173
C     1.171000000    -0.765000000     0.547000000
H     2.002000000    -1.197000000     1.100000000
C    -0.047000000    -0.716000000     1.215000000
H    -0.119000000    -1.164000000     2.203000000
C    -1.108000000    -0.027000000     0.579000000
H    -2.053000000     0.040000000     1.064000000
C    -0.865000000     0.614000000    -0.590000000
H    -1.737000000     1.145000000    -0.963000000
C     0.392000000     0.674000000    -1.261000000
H     0.457000000     1.266000000    -2.170000000
C     1.437000000    -0.057000000    -0.696000000
C     2.760000000    -0.103000000    -1.433000000
O     2.913000000     0.434000000    -2.530000000
O     3.601000000    -0.840000000    -1.024000000
