14
-89.29207
C     0.715000000    -1.337000000     0.277000000
H     1.281000000    -2.249000000     0.449000000
C     0.573000000    -0.798000000    -0.964000000
H     1.004000000    -1.314000000    -1.817000000
C    -0.098000000     0.466000000    -1.108000000
H    -0.236000000     0.845000000    -2.073000000
C    -0.787000000     1.071000000    -0.062000000
H    -1.376000000     1.977000000    -0.175000000
C    -0.664000000     0.505000000     1.191000000
H    -1.091000000     1.062000000     2.022000000
C     0.172000000    -0.667000000     1.387000000
C     0.465000000    -1.100000000     2.812000000
O     0.855000000    -2.256000000     3.011000000
O     0.420000000    -0.294000000     3.730000000
