14
-84.17678
C     1.230000000    -0.709000000     0.170000000
H     2.068000000    -1.366000000     0.389000000
C     0.581000000    -0.630000000    -1.027000000
H     0.998000000    -0.894000000    -1.996000000
C    -0.654000000     0.073000000    -1.037000000
H    -1.149000000     0.211000000    -2.022000000
C    -1.166000000     0.690000000     0.101000000
H    -2.106000000     1.232000000     0.042000000
C    -0.448000000     0.635000000     1.324000000
H    -0.809000000     1.202000000     2.178000000
C     0.728000000    -0.104000000     1.357000000
C     1.532000000    -0.345000000     2.653000000
O     2.696000000    -0.371000000     2.655000000
O     0.908000000    -0.533000000     3.701000000
