14
-76.61305
C     1.213000000     0.441000000    -0.825000000
H     2.159000000     0.821000000    -1.204000000
C     0.274000000     1.264000000    -0.280000000
H     0.352000000     2.336000000    -0.442000000
C    -0.808000000     0.722000000     0.450000000
H    -1.530000000     1.278000000     0.908000000
C    -1.054000000    -0.650000000     0.570000000
H    -1.947000000    -0.973000000     1.098000000
C    -0.070000000    -1.487000000     0.158000000
H    -0.034000000    -2.551000000     0.380000000
C     1.026000000    -0.942000000    -0.599000000
C     2.175000000    -1.895000000    -0.914000000
O     2.117000000    -3.038000000    -0.595000000
O     3.044000000    -1.598000000    -1.721000000
