14
-69.45730
C     0.507000000    -1.336000000     0.348000000
H     0.912000000    -2.302000000     0.638000000
C     0.809000000    -0.665000000    -0.825000000
H     1.476000000    -1.087000000    -1.572000000
C     0.218000000     0.534000000    -1.062000000
H     0.493000000     1.018000000    -1.974000000
C    -0.728000000     1.028000000    -0.186000000
H    -1.140000000     1.995000000    -0.463000000
C    -0.917000000     0.485000000     1.122000000
H    -1.497000000     1.043000000     1.853000000
C    -0.340000000    -0.802000000     1.334000000
C    -0.688000000    -1.527000000     2.533000000
O     0.055000000    -2.348000000     2.955000000
O    -1.496000000    -1.113000000     3.305000000
