14
-85.98009
C     1.093000000    -0.865000000     0.264000000
H     1.850000000    -1.626000000     0.431000000
C     0.273000000    -0.944000000    -0.857000000
H     0.393000000    -1.743000000    -1.584000000
C    -0.779000000    -0.056000000    -0.968000000
H    -1.505000000    -0.173000000    -1.708000000
C    -0.927000000     1.001000000    -0.051000000
H    -1.793000000     1.654000000    -0.125000000
C    -0.026000000     1.150000000     0.995000000
H    -0.254000000     1.832000000     1.811000000
C     1.031000000     0.179000000     1.155000000
C     1.858000000     0.173000000     2.403000000
O     2.893000000    -0.456000000     2.440000000
O     1.666000000     1.083000000     3.191000000
