14
-85.07232
C     1.207000000    -0.967000000     0.049000000
H     1.889000000    -1.813000000     0.037000000
C     0.375000000    -0.829000000    -1.048000000
H     0.486000000    -1.437000000    -1.941000000
C    -0.605000000     0.159000000    -1.040000000
H    -1.259000000     0.227000000    -1.999000000
C    -0.856000000     0.984000000     0.044000000
H    -1.786000000     1.544000000     0.100000000
C     0.046000000     0.895000000     1.090000000
H    -0.170000000     1.507000000     1.962000000
C     1.089000000    -0.059000000     1.164000000
C     1.810000000    -0.195000000     2.450000000
O     2.804000000    -0.931000000     2.532000000
O     1.395000000     0.299000000     3.481000000
