14
-84.98697
C     0.930000000     0.951000000    -0.761000000
H     1.712000000     1.590000000    -1.161000000
C    -0.231000000     1.409000000    -0.065000000
H    -0.320000000     2.485000000     0.056000000
C    -1.020000000     0.425000000     0.604000000
H    -1.799000000     0.745000000     1.296000000
C    -0.781000000    -0.934000000     0.381000000
H    -1.406000000    -1.655000000     0.902000000
C     0.345000000    -1.348000000    -0.272000000
H     0.563000000    -2.410000000    -0.348000000
C     1.238000000    -0.448000000    -0.778000000
C     2.504000000    -1.000000000    -1.548000000
O     2.651000000    -2.230000000    -1.647000000
O     3.226000000    -0.278000000    -2.148000000
