14
-90.33776
C     1.310000000    -0.673000000     0.241000000
H     2.267000000    -1.189000000     0.268000000
C     0.376000000    -1.116000000    -0.665000000
H     0.681000000    -1.900000000    -1.354000000
C    -0.824000000    -0.402000000    -0.833000000
H    -1.532000000    -0.734000000    -1.630000000
C    -1.145000000     0.599000000     0.056000000
H    -2.045000000     1.197000000    -0.059000000
C    -0.182000000     0.997000000     0.999000000
H    -0.352000000     1.917000000     1.551000000
C     1.094000000     0.396000000     1.088000000
C     2.084000000     0.916000000     2.084000000
O     3.165000000     0.329000000     2.152000000
O     1.857000000     1.921000000     2.695000000
