14
-82.86409
C     1.424000000    -0.231000000    -0.108000000
H     2.435000000    -0.621000000    -0.204000000
C     0.506000000    -0.408000000    -1.108000000
H     0.839000000    -0.823000000    -2.055000000
C    -0.765000000    -0.152000000    -0.891000000
H    -1.425000000    -0.228000000    -1.770000000
C    -1.221000000     0.385000000     0.323000000
H    -2.292000000     0.450000000     0.495000000
C    -0.337000000     0.635000000     1.309000000
H    -0.706000000     0.968000000     2.276000000
C     0.996000000     0.377000000     1.077000000
C     2.040000000     0.645000000     2.218000000
O     3.250000000     0.638000000     1.989000000
O     1.637000000     0.802000000     3.334000000
