14
-84.61415
C     1.170000000    -0.740000000     0.559000000
H     1.908000000    -1.440000000     0.943000000
C     0.562000000    -0.929000000    -0.697000000
H     0.857000000    -1.719000000    -1.383000000
C    -0.414000000    -0.120000000    -1.169000000
H    -0.911000000    -0.236000000    -2.145000000
C    -0.918000000     0.833000000    -0.321000000
H    -1.698000000     1.512000000    -0.655000000
C    -0.410000000     1.059000000     0.946000000
H    -0.806000000     1.811000000     1.624000000
C     0.650000000     0.287000000     1.381000000
C     1.296000000     0.499000000     2.731000000
O     2.312000000    -0.080000000     3.058000000
O     0.842000000     1.262000000     3.545000000
