14
-83.18255
C     1.362000000    -0.174000000     0.373000000
H     2.357000000    -0.569000000     0.560000000
C     0.713000000    -0.793000000    -0.675000000
H     1.179000000    -1.586000000    -1.253000000
C    -0.556000000    -0.361000000    -1.020000000
H    -1.058000000    -0.806000000    -1.880000000
C    -1.177000000     0.617000000    -0.288000000
H    -2.204000000     0.908000000    -0.498000000
C    -0.592000000     1.049000000     0.923000000
H    -1.173000000     1.653000000     1.615000000
C     0.728000000     0.627000000     1.269000000
C     1.432000000     1.003000000     2.536000000
O     2.401000000     0.424000000     2.877000000
O     1.063000000     1.997000000     3.145000000
