14
-80.94032
C     1.474000000    -0.267000000    -0.188000000
H     2.514000000    -0.541000000    -0.344000000
C     0.461000000    -0.455000000    -1.120000000
H     0.712000000    -0.786000000    -2.125000000
C    -0.862000000    -0.109000000    -0.858000000
H    -1.731000000    -0.321000000    -1.631000000
C    -1.249000000     0.368000000     0.323000000
H    -2.294000000     0.442000000     0.612000000
C    -0.244000000     0.570000000     1.308000000
H    -0.615000000     0.907000000     2.273000000
C     1.143000000     0.273000000     1.073000000
C     2.148000000     0.462000000     2.111000000
O     3.369000000     0.428000000     1.820000000
O     1.897000000     0.804000000     3.246000000
