14
-86.69865
C     1.423000000     0.397000000    -0.115000000
H     2.465000000     0.708000000    -0.136000000
C     0.382000000     1.254000000     0.295000000
H     0.633000000     2.277000000     0.563000000
C    -0.941000000     0.749000000     0.321000000
H    -1.773000000     1.376000000     0.632000000
C    -1.226000000    -0.586000000     0.036000000
H    -2.252000000    -0.926000000     0.158000000
C    -0.172000000    -1.386000000    -0.363000000
H    -0.275000000    -2.452000000    -0.545000000
C     1.157000000    -0.920000000    -0.568000000
C     2.263000000    -1.890000000    -0.961000000
O     1.885000000    -2.976000000    -1.325000000
O     3.459000000    -1.666000000    -1.010000000
