14
-89.39293
C     1.230000000    -0.439000000     0.774000000
H     2.107000000    -0.908000000     1.212000000
C     0.420000000    -1.252000000    -0.030000000
H     0.688000000    -2.290000000    -0.214000000
C    -0.706000000    -0.724000000    -0.646000000
H    -1.169000000    -1.293000000    -1.446000000
C    -0.963000000     0.628000000    -0.550000000
H    -1.828000000     1.091000000    -1.018000000
C    -0.204000000     1.405000000     0.229000000
H    -0.390000000     2.474000000     0.291000000
C     0.880000000     0.895000000     0.939000000
C     1.869000000     1.819000000     1.573000000
O     2.744000000     1.293000000     2.312000000
O     1.689000000     3.054000000     1.508000000
