14
-84.45479
C     0.798000000    -0.280000000     1.118000000
H     1.436000000    -0.594000000     1.941000000
C    -0.290000000    -1.050000000     0.743000000
H    -0.464000000    -2.010000000     1.223000000
C    -0.941000000    -0.687000000    -0.424000000
H    -1.867000000    -1.177000000    -0.715000000
C    -0.621000000     0.573000000    -1.096000000
H    -1.075000000     0.857000000    -2.041000000
C     0.457000000     1.316000000    -0.624000000
H     0.690000000     2.258000000    -1.114000000
C     1.179000000     0.935000000     0.504000000
C     2.293000000     1.785000000     1.082000000
O     2.860000000     1.523000000     2.117000000
O     2.586000000     2.787000000     0.499000000
