14
-84.17129
C     1.398000000    -0.145000000     0.330000000
H     2.474000000    -0.147000000     0.482000000
C     0.732000000    -0.981000000    -0.531000000
H     1.223000000    -1.762000000    -1.106000000
C    -0.651000000    -0.770000000    -0.691000000
H    -1.184000000    -1.419000000    -1.415000000
C    -1.265000000     0.304000000    -0.133000000
H    -2.299000000     0.501000000    -0.405000000
C    -0.495000000     1.142000000     0.691000000
H    -0.841000000     2.029000000     1.216000000
C     0.808000000     0.894000000     0.959000000
C     1.591000000     1.795000000     1.938000000
O     2.756000000     1.553000000     2.294000000
O     1.092000000     2.809000000     2.418000000
