14
-85.31503
C     0.774000000     0.182000000     1.214000000
H     1.213000000     0.239000000     2.206000000
C    -0.337000000    -0.673000000     1.019000000
H    -0.593000000    -1.352000000     1.829000000
C    -0.979000000    -0.743000000    -0.246000000
H    -1.808000000    -1.326000000    -0.362000000
C    -0.596000000     0.140000000    -1.241000000
H    -1.155000000     0.274000000    -2.164000000
C     0.468000000     0.980000000    -0.954000000
H     0.881000000     1.576000000    -1.763000000
C     1.111000000     1.047000000     0.268000000
C     2.426000000     1.805000000     0.476000000
O     3.075000000     1.738000000     1.496000000
O     2.677000000     2.608000000    -0.446000000
