14
-91.10050
C     0.254000000    -0.966000000     1.092000000
H     0.496000000    -1.759000000     1.796000000
C    -0.482000000    -1.230000000    -0.024000000
H    -0.847000000    -2.238000000    -0.206000000
C    -0.673000000    -0.202000000    -0.989000000
H    -1.159000000    -0.372000000    -1.886000000
C    -0.283000000     1.108000000    -0.729000000
H    -0.539000000     1.894000000    -1.435000000
C     0.600000000     1.271000000     0.383000000
H     1.039000000     2.261000000     0.482000000
C     0.832000000     0.278000000     1.326000000
C     1.712000000     0.511000000     2.510000000
O     1.575000000    -0.081000000     3.593000000
O     2.565000000     1.389000000     2.330000000
