14
-84.38648
C    -0.042000000    -0.897000000     1.154000000
H    -0.299000000    -1.592000000     1.949000000
C    -0.936000000    -0.821000000     0.112000000
H    -1.777000000    -1.504000000     0.021000000
C    -0.796000000     0.065000000    -0.938000000
H    -1.427000000     0.182000000    -1.882000000
C     0.319000000     0.894000000    -0.993000000
H     0.425000000     1.585000000    -1.826000000
C     1.195000000     0.889000000     0.120000000
H     1.948000000     1.661000000     0.261000000
C     1.029000000    -0.032000000     1.195000000
C     2.043000000    -0.091000000     2.368000000
O     1.701000000    -0.654000000     3.418000000
O     3.061000000     0.519000000     2.354000000
