14
-85.97682
C     0.725000000    -0.591000000     1.098000000
H     1.164000000    -0.957000000     2.023000000
C    -0.477000000    -1.041000000     0.601000000
H    -1.028000000    -1.786000000     1.169000000
C    -0.991000000    -0.474000000    -0.503000000
H    -1.954000000    -0.848000000    -0.892000000
C    -0.311000000     0.526000000    -1.164000000
H    -0.690000000     0.990000000    -2.071000000
C     0.874000000     1.082000000    -0.637000000
H     1.333000000     1.921000000    -1.155000000
C     1.336000000     0.471000000     0.505000000
C     2.587000000     1.067000000     1.184000000
O     3.139000000     0.606000000     2.168000000
O     3.015000000     2.165000000     0.784000000
