14
-84.05674
C     0.222000000    -1.022000000     1.022000000
H     0.349000000    -1.824000000     1.745000000
C    -0.807000000    -1.146000000     0.080000000
H    -1.431000000    -2.031000000    -0.018000000
C    -0.942000000    -0.049000000    -0.810000000
H    -1.711000000    -0.164000000    -1.533000000
C     0.038000000     0.908000000    -0.878000000
H    -0.025000000     1.700000000    -1.620000000
C     0.921000000     1.020000000     0.152000000
H     1.617000000     1.846000000     0.280000000
C     1.091000000     0.038000000     1.100000000
C     2.209000000     0.071000000     2.012000000
O     2.127000000    -0.343000000     3.183000000
O     3.287000000     0.538000000     1.615000000
