14
-93.13820
C     1.064000000    -1.111000000     0.054000000
H     1.845000000    -1.866000000     0.012000000
C     0.580000000    -0.524000000    -1.129000000
H     0.833000000    -0.933000000    -2.104000000
C    -0.426000000     0.499000000    -1.029000000
H    -0.833000000     1.022000000    -1.908000000
C    -0.943000000     0.918000000     0.213000000
H    -1.654000000     1.740000000     0.239000000
C    -0.465000000     0.315000000     1.368000000
H    -0.927000000     0.622000000     2.302000000
C     0.509000000    -0.715000000     1.301000000
C     1.014000000    -1.236000000     2.645000000
O     1.956000000    -2.073000000     2.603000000
O     0.647000000    -0.686000000     3.673000000
