14
-86.74999
C     1.221000000    -0.892000000    -0.080000000
H     2.040000000    -1.598000000    -0.189000000
C     0.473000000    -0.490000000    -1.161000000
H     0.619000000    -0.999000000    -2.110000000
C    -0.545000000     0.471000000    -1.040000000
H    -1.101000000     0.829000000    -1.864000000
C    -0.787000000     0.973000000     0.240000000
H    -1.565000000     1.732000000     0.223000000
C    -0.208000000     0.418000000     1.364000000
H    -0.504000000     0.743000000     2.358000000
C     0.782000000    -0.576000000     1.252000000
C     1.421000000    -1.099000000     2.507000000
O     2.099000000    -2.105000000     2.526000000
O     1.209000000    -0.553000000     3.604000000
