14
-77.07378
C     0.852000000    -0.909000000     0.701000000
H     1.625000000    -1.558000000     1.104000000
C     0.735000000    -0.833000000    -0.623000000
H     1.411000000    -1.398000000    -1.261000000
C    -0.086000000     0.118000000    -1.207000000
H    -0.144000000     0.251000000    -2.298000000
C    -0.914000000     0.911000000    -0.457000000
H    -1.660000000     1.483000000    -1.003000000
C    -0.812000000     0.912000000     0.903000000
H    -1.433000000     1.567000000     1.508000000
C     0.105000000    -0.015000000     1.546000000
C     0.350000000    -0.006000000     3.065000000
O     1.007000000    -0.865000000     3.521000000
O    -0.096000000     0.832000000     3.823000000
