14
-84.71260
C     1.103000000    -0.874000000    -0.429000000
H     1.749000000    -1.608000000    -0.905000000
C     0.220000000    -0.148000000    -1.325000000
H     0.331000000    -0.276000000    -2.398000000
C    -0.654000000     0.715000000    -0.766000000
H    -1.189000000     1.362000000    -1.475000000
C    -0.863000000     0.769000000     0.608000000
H    -1.652000000     1.365000000     1.058000000
C     0.020000000     0.031000000     1.419000000
H    -0.216000000    -0.027000000     2.479000000
C     1.024000000    -0.759000000     0.934000000
C     1.726000000    -1.735000000     1.852000000
O     2.320000000    -2.674000000     1.378000000
O     1.491000000    -1.736000000     3.073000000
