14
-81.64741
C     0.081000000    -1.367000000     0.535000000
H     0.030000000    -2.404000000     0.858000000
C    -0.750000000    -0.946000000    -0.512000000
H    -1.573000000    -1.581000000    -0.828000000
C    -0.737000000     0.394000000    -0.845000000
H    -1.437000000     0.773000000    -1.575000000
C     0.232000000     1.261000000    -0.376000000
H     0.058000000     2.272000000    -0.735000000
C     1.155000000     0.785000000     0.572000000
H     1.980000000     1.471000000     0.745000000
C     1.088000000    -0.576000000     1.010000000
C     2.037000000    -1.116000000     2.004000000
O     1.906000000    -2.219000000     2.435000000
O     2.906000000    -0.379000000     2.412000000
