14
-92.02155
C    -1.387000000    -0.269000000    -0.287000000
H    -2.428000000    -0.401000000    -0.570000000
C    -0.453000000     0.077000000    -1.195000000
H    -0.818000000     0.313000000    -2.191000000
C     0.877000000     0.255000000    -0.848000000
H     1.657000000     0.473000000    -1.591000000
C     1.303000000     0.056000000     0.462000000
H     2.288000000     0.357000000     0.811000000
C     0.306000000    -0.355000000     1.439000000
H     0.550000000    -0.462000000     2.493000000
C    -1.041000000    -0.444000000     1.065000000
C    -2.077000000    -0.746000000     2.126000000
O    -3.296000000    -0.826000000     1.772000000
O    -1.765000000    -0.817000000     3.322000000
