14
-83.46584
C    -1.445000000    -0.383000000     0.149000000
H    -2.506000000    -0.616000000     0.193000000
C    -0.876000000    -0.110000000    -1.049000000
H    -1.417000000    -0.187000000    -1.988000000
C     0.475000000     0.304000000    -1.062000000
H     1.082000000     0.425000000    -2.015000000
C     1.182000000     0.400000000     0.122000000
H     2.226000000     0.700000000     0.102000000
C     0.624000000    -0.049000000     1.304000000
H     1.295000000     0.013000000     2.158000000
C    -0.724000000    -0.296000000     1.369000000
C    -1.206000000    -0.719000000     2.716000000
O    -2.265000000    -1.273000000     2.832000000
O    -0.474000000    -0.594000000     3.674000000
