14
-83.92493
C    -0.683000000    -1.311000000    -0.418000000
H    -1.061000000    -2.242000000    -0.834000000
C     0.207000000    -0.520000000    -1.196000000
H     0.510000000    -0.800000000    -2.202000000
C     0.860000000     0.579000000    -0.671000000
H     1.514000000     1.213000000    -1.334000000
C     0.493000000     1.070000000     0.593000000
H     0.876000000     2.035000000     0.915000000
C    -0.346000000     0.342000000     1.394000000
H    -0.548000000     0.826000000     2.346000000
C    -0.932000000    -0.905000000     0.933000000
C    -1.903000000    -1.634000000     1.909000000
O    -2.561000000    -2.591000000     1.469000000
O    -2.222000000    -1.143000000     2.953000000
