14
-83.74711
C    -0.319000000    -1.405000000    -0.338000000
H    -0.491000000    -2.416000000    -0.700000000
C     0.429000000    -0.498000000    -1.115000000
H     0.848000000    -0.860000000    -2.050000000
C     0.696000000     0.767000000    -0.695000000
H     1.344000000     1.379000000    -1.309000000
C     0.220000000     1.196000000     0.512000000
H     0.476000000     2.137000000     0.992000000
C    -0.558000000     0.309000000     1.306000000
H    -0.848000000     0.743000000     2.259000000
C    -0.883000000    -1.006000000     0.908000000
C    -1.731000000    -1.954000000     1.743000000
O    -1.856000000    -3.113000000     1.474000000
O    -2.213000000    -1.548000000     2.757000000
