14
-83.61544
C    -1.378000000    -0.502000000     0.345000000
H    -2.340000000    -0.991000000     0.478000000
C    -0.885000000    -0.289000000    -0.992000000
H    -1.552000000    -0.531000000    -1.815000000
C     0.356000000     0.263000000    -1.153000000
H     0.812000000     0.391000000    -2.088000000
C     1.209000000     0.431000000    -0.049000000
H     2.169000000     0.926000000    -0.173000000
C     0.705000000     0.191000000     1.251000000
H     1.350000000     0.272000000     2.122000000
C    -0.563000000    -0.315000000     1.450000000
C    -0.973000000    -0.738000000     2.768000000
O    -2.072000000    -1.211000000     2.890000000
O    -0.305000000    -0.535000000     3.778000000
