14
-83.94670
C     0.562000000    -0.513000000    -1.257000000
H     1.106000000    -0.880000000    -2.123000000
C     0.696000000     0.807000000    -0.746000000
H     1.151000000     1.603000000    -1.329000000
C     0.123000000     1.146000000     0.463000000
H    -0.081000000     2.161000000     0.891000000
C    -0.498000000     0.123000000     1.185000000
H    -1.006000000     0.375000000     2.112000000
C    -0.614000000    -1.152000000     0.706000000
H    -1.182000000    -1.900000000     1.254000000
C    -0.099000000    -1.498000000    -0.475000000
C    -0.242000000    -2.857000000    -1.085000000
O    -0.760000000    -3.810000000    -0.454000000
O     0.124000000    -3.092000000    -2.216000000
