14
-84.68347
C    -1.443000000     0.321000000    -0.112000000
H    -2.462000000     0.692000000    -0.182000000
C    -0.472000000     0.590000000    -1.066000000
H    -0.735000000     1.155000000    -1.956000000
C     0.817000000     0.252000000    -0.873000000
H     1.518000000     0.536000000    -1.648000000
C     1.185000000    -0.427000000     0.267000000
H     2.168000000    -0.858000000     0.443000000
C     0.240000000    -0.673000000     1.244000000
H     0.632000000    -1.049000000     2.185000000
C    -1.112000000    -0.235000000     1.153000000
C    -2.069000000    -0.437000000     2.242000000
O    -3.156000000     0.046000000     2.121000000
O    -1.803000000    -1.234000000     3.145000000
