14
-85.61893
C    -0.425000000     1.473000000     0.103000000
H    -0.731000000     2.516000000     0.088000000
C     0.871000000     1.054000000    -0.358000000
H     1.592000000     1.808000000    -0.666000000
C     1.168000000    -0.328000000    -0.239000000
H     2.155000000    -0.670000000    -0.556000000
C     0.189000000    -1.217000000     0.074000000
H     0.345000000    -2.291000000     0.144000000
C    -1.078000000    -0.806000000     0.467000000
H    -1.841000000    -1.513000000     0.782000000
C    -1.379000000     0.542000000     0.493000000
C    -2.791000000     0.928000000     0.859000000
O    -3.276000000     2.008000000     0.563000000
O    -3.455000000     0.133000000     1.429000000
