14
-86.96984
C     0.427000000    -0.419000000    -1.393000000
H     0.874000000    -0.711000000    -2.340000000
C     1.145000000    -0.734000000    -0.195000000
H     2.087000000    -1.270000000    -0.273000000
C     0.663000000    -0.220000000     1.015000000
H     1.220000000    -0.419000000     1.887000000
C    -0.420000000     0.611000000     1.007000000
H    -0.671000000     0.957000000     2.006000000
C    -1.215000000     0.756000000    -0.108000000
H    -2.147000000     1.316000000    -0.099000000
C    -0.776000000     0.306000000    -1.339000000
C    -1.676000000     0.537000000    -2.553000000
O    -1.249000000     0.369000000    -3.681000000
O    -2.865000000     0.838000000    -2.450000000
