14
-83.09007
C     0.351000000    -0.724000000    -1.308000000
H     0.812000000    -1.121000000    -2.209000000
C     1.069000000    -0.794000000    -0.075000000
H     2.057000000    -1.241000000     0.006000000
C     0.688000000    -0.067000000     1.032000000
H     1.336000000    -0.076000000     1.859000000
C    -0.444000000     0.735000000     0.940000000
H    -0.774000000     1.273000000     1.826000000
C    -1.221000000     0.744000000    -0.225000000
H    -2.119000000     1.355000000    -0.240000000
C    -0.870000000     0.050000000    -1.391000000
C    -1.720000000     0.076000000    -2.597000000
O    -1.347000000    -0.517000000    -3.600000000
O    -2.629000000     0.827000000    -2.616000000
