14
-85.29991
C    -0.601000000    -1.173000000    -0.621000000
H    -1.186000000    -2.043000000    -0.908000000
C     0.366000000    -1.242000000     0.369000000
H     0.655000000    -2.169000000     0.858000000
C     0.938000000    -0.051000000     0.871000000
H     1.579000000    -0.085000000     1.751000000
C     0.460000000     1.134000000     0.320000000
H     0.696000000     2.059000000     0.840000000
C    -0.465000000     1.204000000    -0.711000000
H    -0.795000000     2.198000000    -1.001000000
C    -0.926000000     0.039000000    -1.293000000
C    -2.029000000     0.029000000    -2.359000000
O    -2.219000000    -0.946000000    -3.036000000
O    -2.529000000     1.092000000    -2.712000000
