14
-88.44574
C    -0.236000000    -0.494000000    -1.295000000
H    -0.420000000    -0.968000000    -2.256000000
C    -0.455000000    -1.187000000    -0.153000000
H    -0.863000000    -2.190000000    -0.249000000
C    -0.316000000    -0.586000000     1.087000000
H    -0.560000000    -1.057000000     2.054000000
C     0.038000000     0.775000000     1.043000000
H     0.008000000     1.251000000     2.020000000
C     0.402000000     1.437000000    -0.103000000
H     0.786000000     2.453000000    -0.046000000
C     0.310000000     0.804000000    -1.316000000
C     0.779000000     1.512000000    -2.592000000
O     0.463000000     1.084000000    -3.677000000
O     1.352000000     2.608000000    -2.511000000
