14
-81.32681
C     0.865000000    -0.742000000    -0.818000000
H     1.564000000    -1.398000000    -1.331000000
C     1.052000000    -0.625000000     0.547000000
H     1.771000000    -1.222000000     1.102000000
C     0.122000000     0.167000000     1.202000000
H     0.044000000     0.236000000     2.264000000
C    -0.861000000     0.818000000     0.501000000
H    -1.613000000     1.437000000     0.983000000
C    -1.050000000     0.650000000    -0.876000000
H    -1.966000000     0.983000000    -1.359000000
C    -0.139000000    -0.127000000    -1.540000000
C    -0.086000000    -0.105000000    -3.088000000
O     0.532000000    -0.833000000    -3.786000000
O    -0.704000000     0.811000000    -3.569000000
