14
-83.91248
C    -0.125000000    -0.569000000    -1.394000000
H    -0.436000000    -1.066000000    -2.309000000
C     0.256000000    -1.309000000    -0.288000000
H     0.426000000    -2.382000000    -0.336000000
C     0.332000000    -0.656000000     0.951000000
H     0.584000000    -1.333000000     1.894000000
C    -0.013000000     0.673000000     1.084000000
H    -0.075000000     1.110000000     2.077000000
C    -0.397000000     1.412000000    -0.001000000
H    -0.724000000     2.442000000     0.115000000
C    -0.395000000     0.766000000    -1.274000000
C    -0.588000000     1.618000000    -2.556000000
O    -0.620000000     1.117000000    -3.657000000
O    -0.585000000     2.804000000    -2.426000000
