14
-85.74784
C    -0.771000000    -0.717000000    -1.065000000
H    -1.438000000    -1.280000000    -1.712000000
C    -1.244000000     0.199000000    -0.079000000
H    -2.301000000     0.453000000    -0.111000000
C    -0.404000000     0.748000000     0.897000000
H    -0.779000000     1.641000000     1.437000000
C     0.949000000     0.551000000     0.826000000
H     1.627000000     1.057000000     1.507000000
C     1.466000000    -0.374000000    -0.135000000
H     2.493000000    -0.729000000    -0.115000000
C     0.580000000    -1.081000000    -0.960000000
C     1.132000000    -2.063000000    -1.939000000
O     0.415000000    -2.524000000    -2.856000000
O     2.351000000    -2.232000000    -2.020000000
