14
-83.29184
C     0.314000000    -0.050000000    -1.491000000
H     0.279000000     0.020000000    -2.575000000
C    -0.977000000    -0.171000000    -0.880000000
H    -1.900000000    -0.184000000    -1.454000000
C    -1.145000000    -0.218000000     0.481000000
H    -2.149000000    -0.316000000     1.003000000
C    -0.012000000    -0.320000000     1.283000000
H    -0.186000000    -0.292000000     2.355000000
C     1.263000000    -0.258000000     0.750000000
H     2.094000000    -0.080000000     1.427000000
C     1.476000000    -0.093000000    -0.660000000
C     2.787000000     0.162000000    -1.336000000
O     3.053000000    -0.213000000    -2.466000000
O     3.692000000     0.675000000    -0.691000000
