14
-88.32812
C     0.191000000     0.003000000    -1.457000000
H     0.326000000    -0.007000000    -2.536000000
C    -0.967000000    -0.528000000    -0.842000000
H    -1.855000000    -0.840000000    -1.384000000
C    -0.982000000    -0.444000000     0.547000000
H    -1.915000000    -0.788000000     0.974000000
C     0.030000000     0.096000000     1.318000000
H    -0.044000000     0.115000000     2.402000000
C     1.096000000     0.651000000     0.596000000
H     1.932000000     0.973000000     1.211000000
C     1.227000000     0.554000000    -0.751000000
C     2.541000000     1.057000000    -1.412000000
O     2.555000000     1.148000000    -2.611000000
O     3.445000000     1.462000000    -0.701000000
