14
-85.12048
C     0.377000000    -0.036000000    -1.358000000
H     0.498000000    -0.104000000    -2.436000000
C    -0.762000000    -0.566000000    -0.877000000
H    -1.396000000    -1.002000000    -1.646000000
C    -1.003000000    -0.516000000     0.503000000
H    -1.813000000    -0.947000000     1.016000000
C     0.020000000    -0.055000000     1.350000000
H    -0.217000000    -0.050000000     2.410000000
C     1.147000000     0.561000000     0.764000000
H     1.909000000     1.078000000     1.342000000
C     1.353000000     0.563000000    -0.608000000
C     2.616000000     1.196000000    -1.221000000
O     2.742000000     1.146000000    -2.439000000
O     3.514000000     1.577000000    -0.524000000
