14
-82.09112
C     0.203000000    -0.805000000    -1.274000000
H     0.269000000    -1.196000000    -2.286000000
C    -0.821000000     0.124000000    -0.937000000
H    -1.529000000     0.297000000    -1.744000000
C    -0.903000000     0.763000000     0.272000000
H    -1.685000000     1.451000000     0.407000000
C     0.032000000     0.548000000     1.203000000
H    -0.016000000     1.029000000     2.177000000
C     1.123000000    -0.317000000     0.898000000
H     1.882000000    -0.434000000     1.667000000
C     1.222000000    -0.995000000    -0.267000000
C     2.358000000    -1.922000000    -0.552000000
O     2.356000000    -2.477000000    -1.619000000
O     3.300000000    -1.942000000     0.172000000
