14
-89.36124
C     0.299000000     0.229000000    -1.471000000
H     0.465000000     0.344000000    -2.539000000
C    -0.737000000    -0.530000000    -0.973000000
H    -1.345000000    -1.104000000    -1.667000000
C    -0.979000000    -0.586000000     0.375000000
H    -1.788000000    -1.186000000     0.793000000
C    -0.186000000     0.111000000     1.265000000
H    -0.408000000    -0.067000000     2.315000000
C     0.884000000     0.850000000     0.815000000
H     1.438000000     1.451000000     1.532000000
C     1.179000000     0.863000000    -0.527000000
C     2.447000000     1.517000000    -0.994000000
O     2.617000000     1.684000000    -2.193000000
O     3.185000000     1.922000000    -0.151000000
