14
-78.69955
C    -0.903000000     1.177000000    -0.101000000
H    -1.670000000     1.943000000    -0.021000000
C    -0.987000000     0.147000000     0.797000000
H    -1.749000000     0.242000000     1.567000000
C    -0.128000000    -0.909000000     0.768000000
H    -0.295000000    -1.725000000     1.490000000
C     0.912000000    -0.953000000    -0.133000000
H     1.598000000    -1.794000000    -0.068000000
C     1.107000000     0.145000000    -0.991000000
H     2.022000000     0.166000000    -1.578000000
C     0.149000000     1.166000000    -1.117000000
C     0.259000000     2.296000000    -1.999000000
O    -0.615000000     3.096000000    -2.063000000
O     1.191000000     2.390000000    -2.773000000
