14
-82.47080
C    -0.002000000     0.472000000    -1.457000000
H    -0.176000000     0.892000000    -2.444000000
C    -1.083000000    -0.010000000    -0.766000000
H    -2.098000000     0.052000000    -1.149000000
C    -0.992000000    -0.365000000     0.575000000
H    -1.930000000    -0.642000000     1.081000000
C     0.169000000    -0.283000000     1.189000000
H     0.197000000    -0.713000000     2.188000000
C     1.372000000     0.097000000     0.551000000
H     2.312000000     0.177000000     1.092000000
C     1.276000000     0.501000000    -0.803000000
C     2.533000000     0.966000000    -1.464000000
O     2.536000000     1.206000000    -2.667000000
O     3.515000000     1.150000000    -0.814000000
