14
-89.63120
C     0.713000000    -0.810000000    -0.972000000
H     1.140000000    -1.412000000    -1.771000000
C    -0.556000000    -1.093000000    -0.567000000
H    -1.188000000    -1.860000000    -1.009000000
C    -1.137000000    -0.190000000     0.330000000
H    -2.183000000    -0.371000000     0.655000000
C    -0.447000000     0.905000000     0.832000000
H    -1.051000000     1.583000000     1.430000000
C     0.772000000     1.219000000     0.365000000
H     1.309000000     2.078000000     0.758000000
C     1.459000000     0.332000000    -0.511000000
C     2.963000000     0.469000000    -0.813000000
O     3.434000000    -0.205000000    -1.722000000
O     3.637000000     1.175000000    -0.053000000
