14
-85.54657
C     0.573000000    -0.661000000    -1.162000000
H     0.911000000    -1.377000000    -1.907000000
C    -0.387000000    -1.195000000    -0.326000000
H    -0.774000000    -2.196000000    -0.498000000
C    -0.901000000    -0.456000000     0.704000000
H    -1.545000000    -0.962000000     1.414000000
C    -0.373000000     0.828000000     0.999000000
H    -0.742000000     1.495000000     1.773000000
C     0.570000000     1.370000000     0.179000000
H     0.891000000     2.382000000     0.412000000
C     1.117000000     0.615000000    -0.906000000
C     2.265000000     1.127000000    -1.794000000
O     2.735000000     0.453000000    -2.689000000
O     2.631000000     2.272000000    -1.673000000
