14
-82.32165
C     0.099000000    -0.263000000    -1.406000000
H     0.098000000    -0.239000000    -2.493000000
C    -1.100000000    -0.336000000    -0.743000000
H    -1.996000000    -0.432000000    -1.351000000
C    -1.055000000    -0.119000000     0.623000000
H    -2.055000000    -0.212000000     1.213000000
C     0.124000000     0.254000000     1.286000000
H     0.177000000     0.324000000     2.370000000
C     1.324000000     0.168000000     0.581000000
H     2.244000000     0.364000000     1.126000000
C     1.340000000     0.066000000    -0.836000000
C     2.625000000     0.293000000    -1.636000000
O     2.573000000    -0.028000000    -2.831000000
O     3.647000000     0.806000000    -1.248000000
