14
-88.18477
C     0.966000000    -0.814000000    -0.875000000
H     1.662000000    -1.229000000    -1.599000000
C     0.857000000     0.601000000    -0.781000000
H     1.538000000     1.219000000    -1.360000000
C    -0.057000000     1.235000000     0.129000000
H    -0.056000000     2.326000000     0.307000000
C    -0.725000000     0.449000000     1.038000000
H    -1.506000000     0.864000000     1.670000000
C    -0.665000000    -0.921000000     0.905000000
H    -1.383000000    -1.552000000     1.422000000
C     0.185000000    -1.581000000    -0.001000000
C     0.205000000    -3.082000000    -0.192000000
O    -0.715000000    -3.667000000     0.348000000
O     0.955000000    -3.638000000    -1.011000000
