14
-92.72115
C    -0.145000000    -1.486000000     0.036000000
H    -0.384000000    -2.545000000     0.098000000
C    -1.197000000    -0.602000000    -0.013000000
H    -2.252000000    -0.854000000     0.040000000
C    -0.953000000     0.787000000     0.073000000
H    -1.795000000     1.502000000     0.011000000
C     0.343000000     1.230000000     0.046000000
H     0.483000000     2.307000000     0.050000000
C     1.445000000     0.297000000     0.029000000
H     2.447000000     0.717000000     0.059000000
C     1.180000000    -1.034000000     0.047000000
C     2.348000000    -2.049000000    -0.075000000
O     2.116000000    -3.244000000    -0.061000000
O     3.474000000    -1.584000000    -0.355000000
