14
-74.56991
C     0.892000000    -0.704000000     0.875000000
H     1.397000000    -1.251000000     1.668000000
C    -0.507000000    -0.623000000     1.015000000
H    -1.048000000    -1.129000000     1.810000000
C    -1.225000000     0.146000000     0.119000000
H    -2.332000000     0.346000000     0.152000000
C    -0.608000000     0.811000000    -0.925000000
H    -1.215000000     1.310000000    -1.677000000
C     0.786000000     0.690000000    -1.031000000
H     1.315000000     1.199000000    -1.832000000
C     1.556000000    -0.075000000    -0.152000000
C     3.112000000    -0.205000000    -0.288000000
O     3.781000000    -0.970000000     0.378000000
O     3.710000000     0.192000000    -1.225000000
