14
-90.62152
C     0.824000000    -1.204000000    -0.156000000
H     1.403000000    -2.122000000    -0.214000000
C    -0.375000000    -1.134000000     0.589000000
H    -0.747000000    -2.011000000     1.113000000
C    -1.056000000     0.059000000     0.700000000
H    -1.960000000     0.061000000     1.300000000
C    -0.550000000     1.188000000     0.030000000
H    -1.087000000     2.126000000    -0.079000000
C     0.641000000     1.156000000    -0.741000000
H     0.950000000     2.059000000    -1.262000000
C     1.348000000    -0.073000000    -0.793000000
C     2.631000000    -0.207000000    -1.635000000
O     3.395000000    -1.129000000    -1.442000000
O     2.917000000     0.639000000    -2.455000000
