14
-80.77787
C    -0.733000000    -1.254000000    -0.305000000
H    -1.287000000    -2.186000000    -0.384000000
C    -1.270000000    -0.213000000     0.415000000
H    -2.322000000    -0.203000000     0.691000000
C    -0.492000000     0.918000000     0.647000000
H    -0.827000000     1.708000000     1.394000000
C     0.803000000     0.956000000     0.237000000
H     1.349000000     1.878000000     0.420000000
C     1.397000000    -0.121000000    -0.496000000
H     2.395000000     0.034000000    -0.897000000
C     0.623000000    -1.246000000    -0.763000000
C     1.273000000    -2.506000000    -1.437000000
O     0.768000000    -3.577000000    -1.583000000
O     2.399000000    -2.370000000    -1.811000000
