14
-82.93017
C     0.758000000    -0.845000000     0.967000000
H     1.356000000    -1.398000000     1.686000000
C    -0.553000000    -0.550000000     1.097000000
H    -1.105000000    -0.769000000     2.007000000
C    -1.221000000     0.179000000     0.178000000
H    -2.306000000     0.341000000     0.331000000
C    -0.549000000     0.693000000    -0.984000000
H    -1.086000000     1.246000000    -1.751000000
C     0.750000000     0.306000000    -1.171000000
H     1.320000000     0.742000000    -1.987000000
C     1.487000000    -0.312000000    -0.176000000
C     2.987000000    -0.599000000    -0.481000000
O     3.630000000    -0.998000000     0.452000000
O     3.516000000    -0.442000000    -1.588000000
