14
-82.05196
C     0.653000000    -0.073000000    -1.354000000
H     1.386000000    -0.027000000    -2.156000000
C     0.624000000     1.048000000    -0.509000000
H     1.262000000     1.849000000    -0.875000000
C    -0.061000000     1.057000000     0.703000000
H     0.016000000     1.925000000     1.424000000
C    -0.702000000    -0.077000000     1.060000000
H    -1.150000000    -0.279000000     2.029000000
C    -0.734000000    -1.230000000     0.194000000
H    -1.179000000    -2.165000000     0.526000000
C    -0.009000000    -1.221000000    -0.991000000
C    -0.011000000    -2.467000000    -1.812000000
O    -0.807000000    -3.305000000    -1.532000000
O     0.749000000    -2.619000000    -2.732000000
