14
-90.23846
C    -0.526000000    -1.346000000    -0.197000000
H    -1.081000000    -2.278000000    -0.256000000
C    -1.342000000    -0.245000000     0.049000000
H    -2.393000000    -0.311000000     0.318000000
C    -0.685000000     1.016000000     0.133000000
H    -1.203000000     1.883000000     0.488000000
C     0.699000000     1.086000000     0.038000000
H     1.253000000     2.018000000     0.104000000
C     1.495000000    -0.026000000    -0.174000000
H     2.576000000     0.043000000    -0.265000000
C     0.883000000    -1.288000000    -0.333000000
C     1.592000000    -2.615000000    -0.565000000
O     0.890000000    -3.655000000    -0.664000000
O     2.828000000    -2.743000000    -0.471000000
