14
-86.92029
C    -0.434000000    -0.102000000     1.464000000
H    -0.906000000    -0.160000000     2.442000000
C    -1.128000000     0.545000000     0.423000000
H    -2.096000000     1.029000000     0.517000000
C    -0.711000000     0.483000000    -0.877000000
H    -1.401000000     0.888000000    -1.621000000
C     0.497000000    -0.080000000    -1.159000000
H     0.823000000    -0.093000000    -2.196000000
C     1.322000000    -0.590000000    -0.159000000
H     2.316000000    -0.987000000    -0.349000000
C     0.856000000    -0.661000000     1.186000000
C     1.562000000    -1.374000000     2.276000000
O     1.210000000    -1.385000000     3.410000000
O     2.521000000    -2.057000000     1.842000000
