14
-71.75215
C    -1.087000000    -1.027000000    -0.098000000
H    -1.925000000    -1.707000000     0.032000000
C    -1.239000000     0.419000000     0.010000000
H    -2.247000000     0.804000000     0.142000000
C    -0.166000000     1.242000000     0.033000000
H    -0.290000000     2.308000000     0.075000000
C     1.062000000     0.707000000     0.042000000
H     2.009000000     1.224000000    -0.091000000
C     1.273000000    -0.685000000    -0.036000000
H     2.259000000    -1.125000000     0.086000000
C     0.198000000    -1.579000000    -0.144000000
C     0.444000000    -2.988000000     0.147000000
O    -0.448000000    -3.813000000     0.433000000
O     1.502000000    -3.425000000    -0.111000000
