14
-80.93641
C    -0.624000000     1.049000000     0.840000000
H    -1.149000000     1.873000000     1.318000000
C    -0.821000000     0.972000000    -0.528000000
H    -1.505000000     1.717000000    -0.926000000
C    -0.176000000    -0.066000000    -1.212000000
H    -0.336000000    -0.184000000    -2.276000000
C     0.695000000    -1.009000000    -0.567000000
H     1.228000000    -1.815000000    -1.066000000
C     0.882000000    -0.862000000     0.816000000
H     1.515000000    -1.591000000     1.315000000
C     0.170000000     0.155000000     1.564000000
C     0.395000000     0.254000000     3.052000000
O    -0.488000000     0.566000000     3.771000000
O     1.330000000    -0.423000000     3.506000000
