14
-88.86516
C     0.170000000     0.651000000     1.282000000
H     0.201000000     1.282000000     2.167000000
C    -0.767000000     0.998000000     0.341000000
H    -1.389000000     1.868000000     0.536000000
C    -0.820000000     0.276000000    -0.885000000
H    -1.491000000     0.673000000    -1.712000000
C     0.118000000    -0.718000000    -1.134000000
H     0.174000000    -1.209000000    -2.103000000
C     1.071000000    -1.017000000    -0.184000000
H     1.757000000    -1.853000000    -0.299000000
C     1.062000000    -0.425000000     1.068000000
C     2.056000000    -0.742000000     2.141000000
O     1.728000000    -0.561000000     3.295000000
O     3.119000000    -1.247000000     1.853000000
