14
-90.57605
C    -0.700000000     1.030000000     0.855000000
H    -1.291000000     1.699000000     1.475000000
C    -1.140000000     0.565000000    -0.373000000
H    -2.105000000     0.875000000    -0.765000000
C    -0.479000000    -0.485000000    -1.030000000
H    -0.786000000    -0.960000000    -1.965000000
C     0.814000000    -0.888000000    -0.540000000
H     1.445000000    -1.450000000    -1.224000000
C     1.318000000    -0.323000000     0.600000000
H     2.318000000    -0.641000000     0.884000000
C     0.556000000     0.603000000     1.343000000
C     1.074000000     1.107000000     2.645000000
O     0.377000000     1.900000000     3.262000000
O     2.262000000     0.868000000     2.898000000
