14
-87.87497
C     0.501000000     0.140000000    -1.345000000
H     0.870000000     0.291000000    -2.356000000
C     0.392000000     1.191000000    -0.429000000
H     0.455000000     2.219000000    -0.775000000
C    -0.130000000     0.904000000     0.789000000
H    -0.314000000     1.721000000     1.529000000
C    -0.355000000    -0.384000000     1.237000000
H    -0.831000000    -0.557000000     2.199000000
C    -0.173000000    -1.433000000     0.348000000
H    -0.499000000    -2.444000000     0.579000000
C     0.175000000    -1.162000000    -0.972000000
C     0.416000000    -2.361000000    -1.889000000
O     0.324000000    -3.551000000    -1.542000000
O     0.600000000    -2.086000000    -3.051000000
