14
-90.82681
C    -0.830000000     1.218000000     0.028000000
H    -1.510000000     2.066000000     0.033000000
C    -1.327000000    -0.097000000     0.169000000
H    -2.386000000    -0.297000000     0.314000000
C    -0.411000000    -1.146000000     0.072000000
H    -0.721000000    -2.183000000     0.049000000
C     0.922000000    -0.898000000    -0.232000000
H     1.579000000    -1.754000000    -0.365000000
C     1.394000000     0.409000000    -0.250000000
H     2.444000000     0.625000000    -0.432000000
C     0.493000000     1.442000000    -0.063000000
C     1.035000000     2.863000000    -0.133000000
O     0.315000000     3.864000000    -0.129000000
O     2.241000000     2.994000000    -0.130000000
