14
-88.18908
C    -0.652000000     1.385000000     0.073000000
H    -1.203000000     2.300000000     0.278000000
C    -1.297000000     0.118000000    -0.139000000
H    -2.353000000     0.139000000    -0.393000000
C    -0.581000000    -1.102000000    -0.160000000
H    -1.095000000    -2.103000000    -0.067000000
C     0.837000000    -1.105000000    -0.121000000
H     1.444000000    -2.005000000    -0.070000000
C     1.441000000     0.178000000    -0.006000000
H     2.513000000     0.190000000     0.168000000
C     0.749000000     1.407000000     0.029000000
C     1.472000000     2.696000000     0.258000000
O     0.933000000     3.759000000    -0.067000000
O     2.556000000     2.705000000     0.839000000
