14
-77.57202
C    -0.716000000     1.158000000     0.521000000
H    -1.306000000     1.922000000     1.021000000
C    -1.293000000    -0.077000000     0.255000000
H    -2.357000000    -0.215000000     0.435000000
C    -0.497000000    -1.127000000    -0.115000000
H    -0.959000000    -2.032000000    -0.334000000
C     0.838000000    -0.931000000    -0.371000000
H     1.480000000    -1.752000000    -0.680000000
C     1.348000000     0.349000000    -0.248000000
H     2.404000000     0.531000000    -0.434000000
C     0.613000000     1.424000000     0.214000000
C     1.194000000     2.832000000     0.280000000
O     0.526000000     3.808000000     0.526000000
O     2.225000000     3.062000000    -0.264000000
