14
-82.22937
C    -0.613000000     1.188000000     0.564000000
H    -1.235000000     2.015000000     0.895000000
C    -1.171000000    -0.103000000     0.437000000
H    -2.193000000    -0.355000000     0.706000000
C    -0.508000000    -1.129000000    -0.162000000
H    -1.070000000    -2.068000000    -0.352000000
C     0.813000000    -0.904000000    -0.510000000
H     1.383000000    -1.735000000    -0.917000000
C     1.415000000     0.359000000    -0.368000000
H     2.461000000     0.551000000    -0.594000000
C     0.711000000     1.432000000     0.178000000
C     1.272000000     2.801000000     0.391000000
O     0.570000000     3.675000000     0.865000000
O     2.375000000     3.122000000     0.100000000
