14
-81.58686
C    -1.303000000     0.648000000    -0.569000000
H    -2.317000000     0.957000000    -0.810000000
C    -1.070000000    -0.708000000    -0.260000000
H    -1.732000000    -1.570000000    -0.250000000
C     0.198000000    -1.169000000     0.114000000
H     0.303000000    -2.199000000     0.230000000
C     1.256000000    -0.315000000     0.259000000
H     2.196000000    -0.571000000     0.743000000
C     1.040000000     1.009000000     0.073000000
H     1.797000000     1.744000000     0.335000000
C    -0.237000000     1.539000000    -0.315000000
C    -0.444000000     3.011000000    -0.489000000
O    -1.465000000     3.372000000    -1.000000000
O     0.428000000     3.793000000    -0.190000000
