14
-87.77622
C    -0.663000000     0.094000000    -1.372000000
H    -1.259000000     0.056000000    -2.281000000
C    -0.563000000    -1.060000000    -0.591000000
H    -1.031000000    -1.920000000    -1.062000000
C     0.157000000    -1.054000000     0.616000000
H     0.295000000    -1.973000000     1.206000000
C     0.711000000     0.117000000     1.137000000
H     1.190000000     0.217000000     2.107000000
C     0.650000000     1.260000000     0.416000000
H     1.143000000     2.156000000     0.785000000
C     0.046000000     1.253000000    -0.891000000
C    -0.118000000     2.538000000    -1.708000000
O    -0.772000000     2.479000000    -2.807000000
O     0.180000000     3.653000000    -1.229000000
