14
-86.36757
C    -1.263000000     0.625000000    -0.542000000
H    -2.130000000     0.834000000    -1.163000000
C    -1.084000000    -0.745000000    -0.181000000
H    -1.854000000    -1.511000000    -0.223000000
C     0.123000000    -1.194000000     0.379000000
H     0.228000000    -2.246000000     0.638000000
C     1.154000000    -0.246000000     0.598000000
H     2.095000000    -0.551000000     1.048000000
C     0.962000000     1.095000000     0.297000000
H     1.724000000     1.869000000     0.256000000
C    -0.221000000     1.533000000    -0.341000000
C    -0.217000000     2.890000000    -0.992000000
O    -0.993000000     3.133000000    -1.896000000
O     0.436000000     3.778000000    -0.494000000
