14
-91.05167
C    -0.992000000     0.790000000    -0.705000000
H    -1.809000000     1.315000000    -1.195000000
C    -1.185000000    -0.499000000    -0.180000000
H    -2.147000000    -0.979000000    -0.340000000
C    -0.159000000    -1.107000000     0.473000000
H    -0.234000000    -2.176000000     0.828000000
C     1.037000000    -0.429000000     0.725000000
H     1.823000000    -0.877000000     1.327000000
C     1.267000000     0.872000000     0.230000000
H     2.257000000     1.291000000     0.390000000
C     0.205000000     1.491000000    -0.530000000
C     0.448000000     2.801000000    -1.168000000
O    -0.462000000     3.377000000    -1.763000000
O     1.522000000     3.372000000    -0.988000000
