14
-83.21884
C    -1.127000000     1.008000000     0.045000000
H    -1.989000000     1.669000000     0.000000000
C    -1.135000000    -0.208000000     0.699000000
H    -1.959000000    -0.484000000     1.352000000
C     0.034000000    -1.043000000     0.731000000
H     0.173000000    -1.979000000     1.337000000
C     1.105000000    -0.708000000    -0.095000000
H     2.011000000    -1.306000000    -0.146000000
C     1.040000000     0.449000000    -0.902000000
H     1.826000000     0.608000000    -1.636000000
C    -0.044000000     1.335000000    -0.841000000
C    -0.093000000     2.573000000    -1.679000000
O    -1.201000000     3.024000000    -1.970000000
O     0.816000000     2.938000000    -2.398000000
