14
-87.77138
C    -1.296000000     0.719000000     0.111000000
H    -2.261000000     1.204000000     0.236000000
C    -1.146000000    -0.567000000    -0.381000000
H    -2.026000000    -1.155000000    -0.629000000
C     0.133000000    -1.133000000    -0.465000000
H     0.147000000    -2.156000000    -0.757000000
C     1.254000000    -0.398000000    -0.074000000
H     2.255000000    -0.818000000    -0.127000000
C     1.113000000     0.947000000     0.200000000
H     1.930000000     1.556000000     0.578000000
C    -0.207000000     1.494000000     0.461000000
C    -0.380000000     2.838000000     1.165000000
O    -1.475000000     3.338000000     1.301000000
O     0.639000000     3.520000000     1.341000000
