14
-92.68473
C    -0.719000000     1.212000000     0.433000000
H    -1.270000000     2.035000000     0.882000000
C    -1.055000000    -0.087000000     0.797000000
H    -1.786000000    -0.316000000     1.569000000
C    -0.342000000    -1.167000000     0.228000000
H    -0.465000000    -2.163000000     0.539000000
C     0.754000000    -0.878000000    -0.600000000
H     1.452000000    -1.662000000    -0.881000000
C     1.036000000     0.402000000    -1.049000000
H     1.930000000     0.611000000    -1.631000000
C     0.259000000     1.439000000    -0.495000000
C     0.577000000     2.930000000    -0.789000000
O    -0.059000000     3.851000000    -0.216000000
O     1.436000000     3.184000000    -1.632000000
