14
-83.17455
C    -1.358000000    -0.096000000     0.553000000
H    -2.379000000    -0.286000000     0.877000000
C    -0.506000000    -1.163000000     0.318000000
H    -0.932000000    -2.155000000     0.450000000
C     0.840000000    -0.980000000    -0.061000000
H     1.407000000    -1.865000000    -0.280000000
C     1.230000000     0.365000000    -0.297000000
H     2.251000000     0.581000000    -0.601000000
C     0.382000000     1.410000000    -0.049000000
H     0.688000000     2.359000000    -0.482000000
C    -0.928000000     1.205000000     0.341000000
C    -1.958000000     2.336000000     0.384000000
O    -3.078000000     2.166000000     0.844000000
O    -1.721000000     3.467000000     0.040000000
