14
-83.71445
C     0.152000000     1.501000000    -0.169000000
H     0.074000000     2.562000000    -0.393000000
C    -0.492000000     0.809000000     0.892000000
H    -0.939000000     1.363000000     1.713000000
C    -0.547000000    -0.580000000     1.009000000
H    -0.980000000    -1.060000000     1.861000000
C     0.065000000    -1.319000000     0.054000000
H     0.167000000    -2.401000000     0.067000000
C     0.710000000    -0.652000000    -1.061000000
H     1.059000000    -1.306000000    -1.856000000
C     0.857000000     0.745000000    -1.136000000
C     1.300000000     1.434000000    -2.446000000
O     1.046000000     2.583000000    -2.775000000
O     1.965000000     0.686000000    -3.102000000
