14
-86.89280
C    -0.652000000     1.336000000     0.033000000
H    -1.115000000     2.318000000     0.091000000
C    -0.525000000     0.471000000     1.094000000
H    -0.802000000     0.755000000     2.106000000
C     0.096000000    -0.783000000     0.939000000
H     0.006000000    -1.383000000     1.851000000
C     0.529000000    -1.213000000    -0.306000000
H     1.052000000    -2.158000000    -0.427000000
C     0.517000000    -0.328000000    -1.343000000
H     0.990000000    -0.565000000    -2.292000000
C    -0.243000000     0.922000000    -1.238000000
C    -0.340000000     1.864000000    -2.442000000
O    -0.854000000     2.934000000    -2.296000000
O     0.075000000     1.485000000    -3.526000000
