14
-83.92678
C    -0.993000000    -0.254000000    -1.088000000
H    -1.834000000    -0.420000000    -1.756000000
C    -0.380000000    -1.267000000    -0.391000000
H    -0.639000000    -2.314000000    -0.519000000
C     0.518000000    -0.891000000     0.587000000
H     1.019000000    -1.748000000     1.013000000
C     0.882000000     0.381000000     0.839000000
H     1.653000000     0.588000000     1.577000000
C     0.311000000     1.390000000     0.109000000
H     0.694000000     2.388000000     0.307000000
C    -0.572000000     1.067000000    -0.961000000
C    -1.257000000     2.155000000    -1.720000000
O    -2.256000000     1.869000000    -2.348000000
O    -0.934000000     3.304000000    -1.551000000
