14
-83.69068
C    -1.272000000    -0.441000000    -0.722000000
H    -2.047000000    -0.911000000    -1.321000000
C    -0.549000000    -1.200000000     0.247000000
H    -0.922000000    -2.207000000     0.413000000
C     0.608000000    -0.657000000     0.848000000
H     1.130000000    -1.370000000     1.556000000
C     1.092000000     0.577000000     0.466000000
H     2.009000000     0.945000000     0.919000000
C     0.397000000     1.348000000    -0.427000000
H     0.845000000     2.272000000    -0.784000000
C    -0.812000000     0.874000000    -1.057000000
C    -1.482000000     1.667000000    -2.062000000
O    -2.466000000     1.267000000    -2.630000000
O    -0.873000000     2.641000000    -2.509000000
