14
-86.02077
C    -1.227000000    -0.103000000    -0.861000000
H    -2.076000000    -0.280000000    -1.518000000
C    -0.453000000    -1.204000000    -0.478000000
H    -0.663000000    -2.201000000    -0.857000000
C     0.632000000    -0.993000000     0.383000000
H     1.238000000    -1.861000000     0.666000000
C     0.866000000     0.276000000     0.890000000
H     1.689000000     0.437000000     1.581000000
C     0.106000000     1.390000000     0.498000000
H     0.290000000     2.377000000     0.914000000
C    -0.895000000     1.219000000    -0.490000000
C    -1.589000000     2.431000000    -1.027000000
O    -2.553000000     2.321000000    -1.710000000
O    -1.062000000     3.514000000    -0.942000000
