14
-81.61002
C    -1.043000000    -0.294000000    -0.981000000
H    -1.900000000    -0.594000000    -1.578000000
C    -0.010000000    -1.179000000    -0.556000000
H    -0.062000000    -2.189000000    -0.952000000
C     0.852000000    -0.793000000     0.426000000
H     1.579000000    -1.465000000     0.901000000
C     0.761000000     0.455000000     0.944000000
H     1.606000000     0.713000000     1.578000000
C    -0.108000000     1.396000000     0.364000000
H    -0.037000000     2.433000000     0.683000000
C    -1.040000000     1.043000000    -0.581000000
C    -2.098000000     2.084000000    -1.034000000
O    -3.134000000     1.791000000    -1.597000000
O    -1.930000000     3.296000000    -0.862000000
