14
-79.80690
C     0.990000000     0.756000000    -0.778000000
H     1.851000000     1.242000000    -1.230000000
C     0.995000000     0.563000000     0.603000000
H     1.853000000     0.971000000     1.131000000
C     0.003000000    -0.133000000     1.226000000
H     0.083000000    -0.484000000     2.250000000
C    -1.131000000    -0.541000000     0.504000000
H    -1.874000000    -1.044000000     1.117000000
C    -1.140000000    -0.388000000    -0.906000000
H    -2.003000000    -0.775000000    -1.442000000
C    -0.054000000     0.179000000    -1.541000000
C    -0.077000000     0.289000000    -3.027000000
O    -0.872000000    -0.224000000    -3.805000000
O     0.830000000     0.880000000    -3.699000000
