14
-75.66132
C    -1.402000000     0.311000000    -0.024000000
H    -2.482000000     0.422000000     0.003000000
C    -0.844000000    -0.764000000     0.676000000
H    -1.443000000    -1.454000000     1.266000000
C     0.511000000    -0.889000000     0.682000000
H     0.836000000    -1.729000000     1.213000000
C     1.357000000    -0.015000000    -0.008000000
H     2.436000000    -0.139000000    -0.055000000
C     0.739000000     0.969000000    -0.782000000
H     1.368000000     1.586000000    -1.418000000
C    -0.653000000     1.139000000    -0.858000000
C    -1.185000000     2.292000000    -1.682000000
O    -2.300000000     2.615000000    -1.598000000
O    -0.516000000     2.783000000    -2.526000000
