14
-88.08408
C    -1.469000000     0.258000000    -0.353000000
H    -2.533000000     0.226000000    -0.575000000
C    -0.932000000    -0.902000000     0.180000000
H    -1.562000000    -1.691000000     0.585000000
C     0.435000000    -1.002000000     0.432000000
H     0.822000000    -1.898000000     0.801000000
C     1.344000000     0.021000000     0.169000000
H     2.377000000    -0.028000000     0.506000000
C     0.817000000     1.124000000    -0.499000000
H     1.475000000     1.906000000    -0.869000000
C    -0.590000000     1.277000000    -0.666000000
C    -1.170000000     2.573000000    -1.123000000
O    -2.363000000     2.744000000    -1.319000000
O    -0.387000000     3.527000000    -1.103000000
