14
-91.28033
C    -1.492000000     0.180000000     0.113000000
H    -2.575000000     0.182000000     0.200000000
C    -0.808000000    -1.009000000     0.164000000
H    -1.385000000    -1.923000000     0.280000000
C     0.589000000    -1.124000000     0.094000000
H     1.044000000    -2.072000000     0.273000000
C     1.285000000     0.095000000    -0.023000000
H     2.368000000     0.040000000     0.058000000
C     0.591000000     1.308000000    -0.118000000
H     1.148000000     2.236000000    -0.217000000
C    -0.777000000     1.354000000    -0.022000000
C    -1.422000000     2.704000000    -0.051000000
O    -2.612000000     2.871000000     0.265000000
O    -0.744000000     3.627000000    -0.424000000
