14
-87.17404
C    -0.823000000    -0.997000000    -0.639000000
H    -1.289000000    -1.916000000    -0.985000000
C     0.534000000    -1.125000000    -0.299000000
H     1.007000000    -2.102000000    -0.366000000
C     1.226000000    -0.063000000     0.215000000
H     2.309000000    -0.211000000     0.515000000
C     0.599000000     1.162000000     0.358000000
H     1.181000000     1.964000000     0.804000000
C    -0.761000000     1.297000000     0.011000000
H    -1.293000000     2.210000000     0.265000000
C    -1.485000000     0.177000000    -0.490000000
C    -2.945000000     0.154000000    -0.959000000
O    -3.443000000    -0.883000000    -1.411000000
O    -3.727000000     1.046000000    -0.619000000
