14
-89.70880
C    -1.221000000     0.249000000     0.686000000
H    -2.118000000     0.375000000     1.286000000
C    -0.042000000     0.050000000     1.336000000
H    -0.108000000    -0.031000000     2.418000000
C     1.111000000    -0.008000000     0.537000000
H     2.160000000     0.016000000     0.955000000
C     1.015000000    -0.076000000    -0.856000000
H     1.893000000    -0.186000000    -1.487000000
C    -0.252000000    -0.037000000    -1.461000000
H    -0.298000000    -0.193000000    -2.536000000
C    -1.409000000     0.112000000    -0.672000000
C    -2.801000000     0.179000000    -1.292000000
O    -3.803000000     0.117000000    -0.560000000
O    -2.930000000     0.192000000    -2.497000000
