14
-88.42889
C    -1.102000000    -0.969000000     0.011000000
H    -1.884000000    -1.723000000    -0.039000000
C     0.068000000    -1.069000000     0.800000000
H     0.256000000    -1.951000000     1.406000000
C     0.958000000    -0.023000000     0.743000000
H     1.889000000    -0.062000000     1.324000000
C     0.786000000     1.074000000    -0.073000000
H     1.578000000     1.816000000    -0.140000000
C    -0.303000000     1.114000000    -0.905000000
H    -0.456000000     1.979000000    -1.546000000
C    -1.282000000     0.094000000    -0.900000000
C    -2.416000000     0.133000000    -1.863000000
O    -2.997000000    -0.896000000    -2.151000000
O    -2.822000000     1.155000000    -2.409000000
