14
-79.16944
C    -0.817000000    -1.159000000     0.065000000
H    -1.316000000    -2.117000000     0.185000000
C     0.207000000    -0.826000000     0.984000000
H     0.538000000    -1.595000000     1.678000000
C     0.920000000     0.301000000     0.757000000
H     1.826000000     0.478000000     1.266000000
C     0.527000000     1.184000000    -0.213000000
H     1.192000000     2.033000000    -0.353000000
C    -0.499000000     0.886000000    -1.105000000
H    -0.729000000     1.503000000    -1.971000000
C    -1.209000000    -0.319000000    -1.023000000
C    -2.228000000    -0.708000000    -2.037000000
O    -2.711000000    -1.788000000    -1.910000000
O    -2.587000000    -0.030000000    -2.955000000
