14
-82.09834
C    -1.383000000    -0.279000000     0.530000000
H    -2.320000000    -0.568000000     0.999000000
C    -0.267000000    -0.060000000     1.294000000
H    -0.318000000    -0.235000000     2.366000000
C     1.001000000     0.084000000     0.646000000
H     1.907000000     0.059000000     1.303000000
C     1.157000000     0.111000000    -0.698000000
H     2.151000000     0.153000000    -1.137000000
C    -0.049000000     0.054000000    -1.440000000
H    -0.135000000    -0.025000000    -2.520000000
C    -1.309000000    -0.144000000    -0.831000000
C    -2.491000000    -0.240000000    -1.695000000
O    -3.572000000    -0.311000000    -1.149000000
O    -2.418000000     0.065000000    -2.870000000
