14
-90.94516
C    -1.323000000    -0.098000000     0.535000000
H    -2.237000000    -0.284000000     1.093000000
C    -0.133000000    -0.556000000     1.136000000
H    -0.180000000    -0.983000000     2.134000000
C     1.094000000    -0.389000000     0.476000000
H     2.032000000    -0.783000000     0.992000000
C     1.131000000     0.178000000    -0.809000000
H     2.088000000     0.173000000    -1.324000000
C    -0.061000000     0.735000000    -1.400000000
H    -0.060000000     1.091000000    -2.427000000
C    -1.299000000     0.602000000    -0.718000000
C    -2.560000000     1.020000000    -1.377000000
O    -3.550000000     1.284000000    -0.692000000
O    -2.510000000     1.294000000    -2.610000000
