14
-83.11470
C    -0.779000000    -0.815000000     1.079000000
H    -1.355000000    -1.494000000     1.703000000
C     0.517000000    -1.094000000     0.580000000
H     0.941000000    -2.038000000     0.912000000
C     1.178000000    -0.260000000    -0.347000000
H     2.155000000    -0.475000000    -0.805000000
C     0.508000000     0.871000000    -0.826000000
H     1.009000000     1.518000000    -1.542000000
C    -0.801000000     1.142000000    -0.395000000
H    -1.340000000     1.999000000    -0.789000000
C    -1.442000000     0.264000000     0.450000000
C    -2.864000000     0.723000000     0.906000000
O    -3.393000000     0.256000000     1.874000000
O    -3.527000000     1.575000000     0.324000000
