14
-87.70497
C    -1.363000000    -0.051000000    -0.668000000
H    -2.352000000    -0.203000000    -1.092000000
C    -0.673000000    -1.209000000    -0.147000000
H    -1.139000000    -2.191000000    -0.123000000
C     0.558000000    -0.981000000     0.414000000
H     1.073000000    -1.794000000     0.914000000
C     1.178000000     0.267000000     0.421000000
H     2.210000000     0.351000000     0.752000000
C     0.525000000     1.391000000    -0.086000000
H     0.998000000     2.369000000    -0.065000000
C    -0.756000000     1.261000000    -0.533000000
C    -1.543000000     2.526000000    -0.939000000
O    -2.666000000     2.334000000    -1.339000000
O    -0.953000000     3.562000000    -1.047000000
