14
-92.86672
C    -1.034000000     0.149000000    -0.972000000
H    -1.920000000     0.255000000    -1.593000000
C    -0.911000000    -0.918000000    -0.063000000
H    -1.610000000    -1.750000000    -0.080000000
C     0.139000000    -0.954000000     0.844000000
H     0.141000000    -1.676000000     1.669000000
C     1.091000000     0.054000000     0.761000000
H     1.871000000     0.100000000     1.516000000
C     0.990000000     1.105000000    -0.158000000
H     1.721000000     1.899000000    -0.287000000
C    -0.116000000     1.173000000    -1.071000000
C    -0.284000000     2.309000000    -1.995000000
O    -0.962000000     2.174000000    -3.023000000
O     0.215000000     3.407000000    -1.702000000
