14
-89.43089
C    -1.308000000     0.478000000    -0.599000000
H    -2.230000000     0.642000000    -1.152000000
C    -1.138000000    -0.742000000     0.080000000
H    -2.019000000    -1.346000000     0.282000000
C     0.095000000    -1.027000000     0.642000000
H     0.254000000    -1.960000000     1.090000000
C     1.202000000    -0.136000000     0.530000000
H     2.169000000    -0.485000000     0.880000000
C     1.013000000     0.948000000    -0.287000000
H     1.863000000     1.625000000    -0.328000000
C    -0.218000000     1.317000000    -0.850000000
C    -0.331000000     2.552000000    -1.768000000
O    -1.464000000     2.883000000    -2.044000000
O     0.656000000     3.210000000    -2.076000000
