14
-85.78034
C    -0.010000000     1.511000000     0.147000000
H    -0.028000000     2.578000000     0.356000000
C     0.553000000     0.592000000     1.090000000
H     0.970000000     0.970000000     2.020000000
C     0.481000000    -0.798000000     0.898000000
H     1.028000000    -1.395000000     1.568000000
C    -0.085000000    -1.241000000    -0.346000000
H    -0.102000000    -2.305000000    -0.565000000
C    -0.615000000    -0.333000000    -1.257000000
H    -1.218000000    -0.703000000    -2.083000000
C    -0.515000000     1.048000000    -1.076000000
C    -1.070000000     2.009000000    -2.140000000
O    -1.515000000     1.691000000    -3.234000000
O    -0.983000000     3.203000000    -1.937000000
