14
-83.85291
C    -0.801000000     0.965000000    -0.770000000
H    -1.487000000     1.544000000    -1.383000000
C    -1.289000000    -0.054000000     0.114000000
H    -2.335000000    -0.347000000     0.149000000
C    -0.347000000    -0.894000000     0.804000000
H    -0.711000000    -1.760000000     1.334000000
C     0.964000000    -0.591000000     0.688000000
H     1.698000000    -1.103000000     1.304000000
C     1.429000000     0.412000000    -0.104000000
H     2.492000000     0.637000000    -0.074000000
C     0.574000000     1.126000000    -0.975000000
C     1.031000000     2.059000000    -2.020000000
O     0.217000000     2.545000000    -2.853000000
O     2.167000000     2.538000000    -2.089000000
