14
-87.54683
C    -0.797000000     0.799000000    -1.004000000
H    -1.465000000     1.341000000    -1.669000000
C    -1.284000000    -0.249000000    -0.134000000
H    -2.306000000    -0.582000000    -0.296000000
C    -0.502000000    -0.836000000     0.754000000
H    -0.928000000    -1.558000000     1.429000000
C     0.815000000    -0.509000000     0.805000000
H     1.506000000    -1.082000000     1.417000000
C     1.399000000     0.480000000     0.005000000
H     2.417000000     0.827000000     0.161000000
C     0.586000000     1.112000000    -0.946000000
C     1.160000000     2.229000000    -1.846000000
O     0.446000000     2.957000000    -2.527000000
O     2.400000000     2.326000000    -1.929000000
