14
-94.67224
C     0.300000000     1.421000000    -0.231000000
H     0.336000000     2.507000000    -0.262000000
C    -0.933000000     0.874000000     0.247000000
H    -1.774000000     1.552000000     0.366000000
C    -1.115000000    -0.512000000     0.309000000
H    -2.125000000    -0.935000000     0.469000000
C    -0.039000000    -1.325000000     0.091000000
H    -0.069000000    -2.410000000     0.164000000
C     1.213000000    -0.799000000    -0.264000000
H     2.043000000    -1.497000000    -0.345000000
C     1.404000000     0.590000000    -0.457000000
C     2.747000000     1.203000000    -0.794000000
O     2.828000000     2.446000000    -0.698000000
O     3.639000000     0.444000000    -1.223000000
