14
-88.12773
C     0.969000000     1.123000000    -0.305000000
H     1.736000000     1.816000000    -0.641000000
C     0.355000000     0.308000000    -1.250000000
H     0.596000000     0.382000000    -2.308000000
C    -0.522000000    -0.707000000    -0.851000000
H    -0.933000000    -1.325000000    -1.608000000
C    -0.858000000    -0.851000000     0.469000000
H    -1.557000000    -1.630000000     0.765000000
C    -0.429000000     0.047000000     1.410000000
H    -0.610000000    -0.118000000     2.469000000
C     0.562000000     1.044000000     1.078000000
C     1.286000000     1.859000000     2.112000000
O     1.929000000     2.805000000     1.716000000
O     1.386000000     1.464000000     3.266000000
