14
-85.71176
C     1.196000000     0.537000000    -0.549000000
H     2.207000000     0.799000000    -0.851000000
C     0.603000000    -0.657000000    -0.961000000
H     1.075000000    -1.235000000    -1.751000000
C    -0.587000000    -1.011000000    -0.399000000
H    -1.110000000    -1.992000000    -0.706000000
C    -1.226000000    -0.152000000     0.534000000
H    -2.189000000    -0.478000000     0.919000000
C    -0.626000000     1.060000000     0.974000000
H    -1.115000000     1.672000000     1.727000000
C     0.618000000     1.344000000     0.479000000
C     1.467000000     2.492000000     0.984000000
O     2.173000000     3.121000000     0.223000000
O     1.461000000     2.789000000     2.143000000
