14
-90.17796
C     1.402000000     0.441000000    -0.249000000
H     2.420000000     0.736000000    -0.489000000
C     0.655000000    -0.468000000    -1.009000000
H     1.050000000    -0.960000000    -1.894000000
C    -0.611000000    -0.831000000    -0.638000000
H    -1.129000000    -1.593000000    -1.242000000
C    -1.172000000    -0.301000000     0.501000000
H    -2.158000000    -0.681000000     0.757000000
C    -0.478000000     0.744000000     1.171000000
H    -1.005000000     1.143000000     2.034000000
C     0.798000000     1.179000000     0.786000000
C     1.511000000     2.264000000     1.608000000
O     2.722000000     2.430000000     1.474000000
O     0.901000000     2.917000000     2.440000000
