14
-79.98211
C     0.321000000     0.583000000    -1.334000000
H     0.648000000     0.933000000    -2.310000000
C     0.082000000    -0.783000000    -1.141000000
H     0.222000000    -1.592000000    -1.853000000
C    -0.243000000    -1.169000000     0.151000000
H    -0.439000000    -2.250000000     0.341000000
C    -0.356000000    -0.267000000     1.214000000
H    -0.622000000    -0.676000000     2.185000000
C    -0.159000000     1.072000000     1.019000000
H    -0.128000000     1.753000000     1.866000000
C     0.157000000     1.536000000    -0.312000000
C     0.690000000     2.968000000    -0.464000000
O     1.262000000     3.240000000    -1.452000000
O     0.355000000     3.856000000     0.275000000
