14
-87.18234
C     1.434000000     0.280000000    -0.215000000
H     2.487000000     0.362000000    -0.472000000
C     0.565000000    -0.208000000    -1.226000000
H     0.937000000    -0.520000000    -2.198000000
C    -0.797000000    -0.270000000    -0.896000000
H    -1.410000000    -0.643000000    -1.674000000
C    -1.320000000     0.027000000     0.429000000
H    -2.362000000    -0.019000000     0.734000000
C    -0.361000000     0.474000000     1.313000000
H    -0.678000000     0.689000000     2.330000000
C     1.025000000     0.605000000     1.062000000
C     1.979000000     0.830000000     2.172000000
O     3.152000000     0.966000000     1.883000000
O     1.592000000     0.908000000     3.320000000
