14
-89.71135
C     0.991000000     0.913000000    -0.653000000
H     1.804000000     1.508000000    -1.063000000
C     0.642000000    -0.382000000    -1.109000000
H     1.226000000    -0.755000000    -1.946000000
C    -0.351000000    -1.087000000    -0.452000000
H    -0.557000000    -2.104000000    -0.824000000
C    -0.908000000    -0.559000000     0.728000000
H    -1.512000000    -1.285000000     1.266000000
C    -0.544000000     0.703000000     1.173000000
H    -1.021000000     1.145000000     2.044000000
C     0.385000000     1.419000000     0.482000000
C     0.844000000     2.711000000     1.119000000
O     1.863000000     3.228000000     0.647000000
O     0.200000000     3.317000000     1.963000000
