14
-88.81185
C     1.332000000    -0.125000000     0.424000000
H     2.342000000    -0.250000000     0.806000000
C     0.684000000    -0.957000000    -0.469000000
H     1.144000000    -1.834000000    -0.916000000
C    -0.629000000    -0.703000000    -0.763000000
H    -1.181000000    -1.318000000    -1.487000000
C    -1.295000000     0.348000000    -0.221000000
H    -2.301000000     0.622000000    -0.531000000
C    -0.629000000     1.192000000     0.696000000
H    -1.099000000     2.088000000     1.092000000
C     0.692000000     0.917000000     1.077000000
C     1.462000000     1.779000000     2.023000000
O     2.584000000     1.504000000     2.488000000
O     1.018000000     2.902000000     2.202000000
