14
-87.75125
C     0.603000000     0.860000000    -1.028000000
H     1.026000000     1.321000000    -1.917000000
C    -0.204000000    -0.265000000    -1.257000000
H    -0.396000000    -0.625000000    -2.265000000
C    -0.743000000    -0.965000000    -0.173000000
H    -1.399000000    -1.699000000    -0.354000000
C    -0.459000000    -0.576000000     1.124000000
H    -0.806000000    -1.214000000     1.933000000
C     0.351000000     0.513000000     1.346000000
H     0.539000000     0.849000000     2.362000000
C     0.754000000     1.315000000     0.255000000
C     1.580000000     2.535000000     0.474000000
O     2.073000000     3.208000000    -0.438000000
O     1.860000000     2.809000000     1.631000000
