14
-87.59988
C     1.284000000    -0.073000000    -0.766000000
H     2.272000000    -0.158000000    -1.212000000
C     1.119000000    -0.444000000     0.556000000
H     1.990000000    -0.686000000     1.160000000
C    -0.122000000    -0.423000000     1.142000000
H    -0.194000000    -0.742000000     2.197000000
C    -1.235000000    -0.038000000     0.394000000
H    -2.208000000    -0.207000000     0.847000000
C    -1.111000000     0.507000000    -0.860000000
H    -2.016000000     0.895000000    -1.320000000
C     0.159000000     0.335000000    -1.526000000
C     0.300000000     1.038000000    -2.867000000
O    -0.701000000     1.274000000    -3.538000000
O     1.429000000     1.173000000    -3.360000000
