14
-84.01659
C     1.313000000     0.628000000     0.342000000
H     2.226000000     1.196000000     0.502000000
C     0.395000000     1.110000000    -0.674000000
H     0.596000000     2.001000000    -1.265000000
C    -0.838000000     0.485000000    -0.780000000
H    -1.657000000     0.945000000    -1.432000000
C    -1.089000000    -0.684000000    -0.057000000
H    -1.991000000    -1.244000000    -0.290000000
C    -0.102000000    -1.270000000     0.750000000
H    -0.313000000    -2.256000000     1.155000000
C     1.114000000    -0.605000000     0.936000000
C     2.079000000    -1.136000000     1.981000000
O     3.130000000    -0.569000000     2.209000000
O     1.885000000    -2.140000000     2.727000000
