14
-86.18770
C     1.093000000    -0.847000000     0.551000000
H     1.709000000    -1.694000000     0.844000000
C     0.689000000    -0.762000000    -0.820000000
H     1.141000000    -1.366000000    -1.603000000
C    -0.327000000     0.103000000    -1.190000000
H    -0.719000000     0.104000000    -2.184000000
C    -0.888000000     0.931000000    -0.242000000
H    -1.717000000     1.606000000    -0.438000000
C    -0.396000000     0.900000000     1.044000000
H    -1.044000000     1.361000000     1.785000000
C     0.573000000     0.011000000     1.472000000
C     0.794000000    -0.180000000     2.944000000
O     1.613000000    -1.009000000     3.286000000
O     0.243000000     0.519000000     3.786000000
