14
-83.57706
C     1.320000000    -0.540000000     0.269000000
H     2.338000000    -0.915000000     0.210000000
C     0.876000000    -0.030000000    -0.981000000
H     1.427000000    -0.027000000    -1.918000000
C    -0.379000000     0.446000000    -1.079000000
H    -0.680000000     0.935000000    -1.942000000
C    -1.242000000     0.499000000     0.021000000
H    -2.228000000     0.950000000    -0.050000000
C    -0.773000000    -0.030000000     1.266000000
H    -1.411000000     0.086000000     2.139000000
C     0.544000000    -0.505000000     1.399000000
C     1.037000000    -1.006000000     2.689000000
O     2.187000000    -1.364000000     2.855000000
O     0.254000000    -1.215000000     3.674000000
