14
-86.37396
C     1.436000000     0.267000000     0.221000000
H     2.438000000     0.614000000     0.460000000
C     0.532000000     1.097000000    -0.407000000
H     0.922000000     2.019000000    -0.830000000
C    -0.829000000     0.757000000    -0.590000000
H    -1.515000000     1.493000000    -1.149000000
C    -1.256000000    -0.475000000    -0.059000000
H    -2.287000000    -0.794000000    -0.185000000
C    -0.298000000    -1.344000000     0.474000000
H    -0.648000000    -2.293000000     0.871000000
C     0.998000000    -0.943000000     0.692000000
C     1.982000000    -1.727000000     1.509000000
O     3.188000000    -1.576000000     1.345000000
O     1.609000000    -2.722000000     2.132000000
