14
-84.99051
C     1.398000000     0.088000000     0.443000000
H     2.350000000     0.311000000     0.917000000
C     0.906000000     0.780000000    -0.668000000
H     1.503000000     1.451000000    -1.281000000
C    -0.435000000     0.562000000    -1.005000000
H    -0.845000000     1.080000000    -1.848000000
C    -1.263000000    -0.248000000    -0.178000000
H    -2.310000000    -0.402000000    -0.429000000
C    -0.781000000    -0.860000000     0.909000000
H    -1.417000000    -1.501000000     1.514000000
C     0.591000000    -0.780000000     1.212000000
C     1.160000000    -1.602000000     2.367000000
O     2.328000000    -1.516000000     2.648000000
O     0.379000000    -2.095000000     3.125000000
