14
-88.24011
C     1.398000000     0.479000000     0.098000000
H     2.436000000     0.794000000     0.174000000
C     0.286000000     1.308000000    -0.111000000
H     0.351000000     2.385000000    -0.241000000
C    -0.968000000     0.647000000    -0.362000000
H    -1.862000000     1.211000000    -0.663000000
C    -1.133000000    -0.684000000    -0.244000000
H    -2.099000000    -1.160000000    -0.392000000
C    -0.057000000    -1.462000000     0.170000000
H    -0.211000000    -2.508000000     0.423000000
C     1.178000000    -0.852000000     0.383000000
C     2.388000000    -1.673000000     0.876000000
O     3.174000000    -1.154000000     1.658000000
O     2.457000000    -2.891000000     0.660000000
