14
-94.51968
C     1.403000000     0.281000000     0.220000000
H     2.427000000     0.599000000     0.397000000
C     0.438000000     1.246000000    -0.077000000
H     0.713000000     2.292000000    -0.190000000
C    -0.880000000     0.820000000    -0.262000000
H    -1.678000000     1.509000000    -0.569000000
C    -1.171000000    -0.526000000    -0.189000000
H    -2.216000000    -0.729000000    -0.410000000
C    -0.164000000    -1.518000000     0.038000000
H    -0.413000000    -2.576000000     0.030000000
C     1.128000000    -1.090000000     0.221000000
C     2.250000000    -2.065000000     0.616000000
O     3.284000000    -1.643000000     1.144000000
O     1.981000000    -3.254000000     0.480000000
