14
-85.16461
C     0.466000000     0.046000000     1.469000000
H     0.645000000     0.225000000     2.526000000
C     0.258000000     1.144000000     0.580000000
H     0.451000000     2.103000000     1.054000000
C    -0.187000000     0.991000000    -0.765000000
H    -0.442000000     1.797000000    -1.346000000
C    -0.466000000    -0.327000000    -1.232000000
H    -0.672000000    -0.574000000    -2.270000000
C    -0.203000000    -1.404000000    -0.392000000
H    -0.303000000    -2.408000000    -0.797000000
C     0.312000000    -1.237000000     0.924000000
C     0.578000000    -2.386000000     1.813000000
O     1.003000000    -2.201000000     2.937000000
O     0.379000000    -3.544000000     1.463000000
