14
-87.06617
C    -0.463000000     0.500000000     1.316000000
H    -0.723000000     1.068000000     2.205000000
C    -0.442000000     1.213000000     0.111000000
H    -0.777000000     2.247000000     0.102000000
C    -0.077000000     0.605000000    -1.038000000
H     0.073000000     1.256000000    -1.927000000
C     0.217000000    -0.757000000    -1.016000000
H     0.355000000    -1.236000000    -1.982000000
C     0.312000000    -1.453000000     0.165000000
H     0.511000000    -2.517000000     0.264000000
C     0.019000000    -0.798000000     1.381000000
C     0.392000000    -1.452000000     2.660000000
O    -0.166000000    -0.958000000     3.632000000
O     1.345000000    -2.197000000     2.725000000
