14
-79.51437
C     0.924000000     0.249000000     1.057000000
H     1.668000000     0.559000000     1.786000000
C     0.438000000     1.176000000     0.210000000
H     0.731000000     2.212000000     0.357000000
C    -0.505000000     0.879000000    -0.732000000
H    -0.814000000     1.689000000    -1.454000000
C    -0.812000000    -0.432000000    -0.898000000
H    -1.549000000    -0.614000000    -1.676000000
C    -0.317000000    -1.416000000    -0.061000000
H    -0.599000000    -2.458000000    -0.186000000
C     0.553000000    -1.124000000     0.993000000
C     1.051000000    -2.210000000     1.965000000
O     1.773000000    -1.894000000     2.912000000
O     0.919000000    -3.349000000     1.726000000
