14
-86.74121
C     0.285000000     0.659000000     1.319000000
H     0.424000000     1.226000000     2.236000000
C    -0.165000000     1.265000000     0.163000000
H    -0.418000000     2.322000000     0.124000000
C    -0.358000000     0.556000000    -1.007000000
H    -0.720000000     1.054000000    -1.942000000
C    -0.193000000    -0.841000000    -1.011000000
H    -0.275000000    -1.422000000    -1.926000000
C     0.174000000    -1.454000000     0.164000000
H     0.115000000    -2.539000000     0.197000000
C     0.506000000    -0.711000000     1.307000000
C     0.891000000    -1.379000000     2.617000000
O     1.471000000    -0.776000000     3.436000000
O     0.603000000    -2.554000000     2.773000000
