14
-87.41023
C    -0.645000000     0.996000000     0.840000000
H    -1.258000000     1.727000000     1.361000000
C    -0.335000000     1.208000000    -0.502000000
H    -0.642000000     2.078000000    -1.076000000
C     0.304000000     0.152000000    -1.170000000
H     0.601000000     0.241000000    -2.183000000
C     0.649000000    -1.076000000    -0.528000000
H     1.150000000    -1.882000000    -1.059000000
C     0.329000000    -1.214000000     0.848000000
H     0.497000000    -2.166000000     1.345000000
C    -0.280000000    -0.185000000     1.504000000
C    -0.553000000    -0.319000000     2.950000000
O    -1.092000000     0.609000000     3.519000000
O    -0.511000000    -1.402000000     3.532000000
