14
-82.47814
C     0.753000000     0.439000000     1.145000000
H     1.334000000     0.820000000     1.981000000
C    -0.165000000     1.213000000     0.523000000
H    -0.299000000     2.235000000     0.868000000
C    -0.822000000     0.723000000    -0.628000000
H    -1.540000000     1.286000000    -1.215000000
C    -0.628000000    -0.628000000    -0.936000000
H    -1.141000000    -1.177000000    -1.721000000
C     0.358000000    -1.377000000    -0.329000000
H     0.457000000    -2.396000000    -0.694000000
C     1.113000000    -0.841000000     0.677000000
C     1.992000000    -1.779000000     1.532000000
O     2.362000000    -1.434000000     2.608000000
O     2.159000000    -2.913000000     1.171000000
