14
-88.39831
C     0.044000000     1.470000000     0.067000000
H    -0.195000000     2.528000000     0.141000000
C     0.072000000     0.711000000    -1.127000000
H    -0.183000000     1.124000000    -2.100000000
C     0.055000000    -0.662000000    -1.078000000
H    -0.183000000    -1.327000000    -1.896000000
C     0.117000000    -1.263000000     0.181000000
H     0.100000000    -2.333000000     0.370000000
C     0.239000000    -0.510000000     1.377000000
H     0.381000000    -1.027000000     2.322000000
C     0.217000000     0.917000000     1.307000000
C     0.009000000     1.770000000     2.554000000
O     0.260000000     2.970000000     2.506000000
O    -0.481000000     1.178000000     3.563000000
