14
-83.35913
C     0.587000000     1.257000000    -0.438000000
H     0.881000000     2.170000000    -0.950000000
C     0.291000000     0.109000000    -1.227000000
H     0.408000000     0.163000000    -2.306000000
C    -0.029000000    -1.090000000    -0.661000000
H    -0.028000000    -2.012000000    -1.202000000
C    -0.321000000    -1.103000000     0.708000000
H    -0.744000000    -2.049000000     1.037000000
C    -0.229000000     0.043000000     1.488000000
H    -0.454000000     0.034000000     2.552000000
C     0.342000000     1.234000000     0.950000000
C     0.344000000     2.503000000     1.774000000
O     0.692000000     3.578000000     1.214000000
O     0.112000000     2.648000000     2.964000000
