14
-77.91035
C     0.534000000     1.269000000    -0.729000000
H     0.989000000     2.066000000    -1.312000000
C     0.551000000    -0.014000000    -1.210000000
H     1.100000000    -0.248000000    -2.119000000
C    -0.056000000    -1.073000000    -0.529000000
H    -0.089000000    -2.085000000    -1.020000000
C    -0.687000000    -0.875000000     0.725000000
H    -1.039000000    -1.757000000     1.252000000
C    -0.653000000     0.424000000     1.266000000
H    -1.016000000     0.475000000     2.290000000
C    -0.040000000     1.501000000     0.555000000
C    -0.010000000     2.822000000     1.260000000
O     0.231000000     3.804000000     0.676000000
O    -0.341000000     2.888000000     2.401000000
