14
-89.17539
C     0.288000000     1.251000000     0.801000000
H     0.331000000     2.134000000     1.433000000
C    -0.370000000     1.197000000    -0.418000000
H    -0.826000000     2.086000000    -0.848000000
C    -0.506000000    -0.025000000    -1.103000000
H    -1.168000000    -0.140000000    -1.999000000
C    -0.055000000    -1.211000000    -0.567000000
H    -0.275000000    -2.140000000    -1.085000000
C     0.575000000    -1.185000000     0.710000000
H     0.830000000    -2.131000000     1.181000000
C     0.695000000     0.050000000     1.390000000
C     1.364000000     0.041000000     2.720000000
O     1.390000000     1.053000000     3.405000000
O     1.852000000    -0.985000000     3.215000000
