14
-91.39401
C     0.797000000     1.077000000     0.685000000
H     1.425000000     1.916000000     0.974000000
C    -0.167000000     1.295000000    -0.344000000
H    -0.227000000     2.267000000    -0.828000000
C    -0.902000000     0.229000000    -0.822000000
H    -1.531000000     0.471000000    -1.647000000
C    -0.676000000    -1.063000000    -0.340000000
H    -1.227000000    -1.911000000    -0.739000000
C     0.254000000    -1.240000000     0.664000000
H     0.405000000    -2.261000000     1.005000000
C     0.985000000    -0.196000000     1.226000000
C     2.109000000    -0.474000000     2.210000000
O     2.972000000     0.333000000     2.322000000
O     2.092000000    -1.537000000     2.878000000
