14
-85.25228
C     0.669000000     1.179000000     0.631000000
H     1.042000000     2.176000000     0.855000000
C     0.081000000     1.163000000    -0.665000000
H     0.001000000     2.056000000    -1.279000000
C    -0.607000000     0.025000000    -1.070000000
H    -1.205000000    -0.022000000    -2.051000000
C    -0.636000000    -1.132000000    -0.250000000
H    -1.153000000    -2.058000000    -0.492000000
C     0.160000000    -1.170000000     0.922000000
H     0.233000000    -2.111000000     1.461000000
C     0.853000000     0.021000000     1.354000000
C     1.456000000     0.025000000     2.722000000
O     1.650000000     1.109000000     3.287000000
O     1.774000000    -0.987000000     3.321000000
