14
-87.27106
C     0.758000000     1.101000000     0.721000000
H     1.274000000     1.962000000     1.137000000
C    -0.187000000     1.303000000    -0.294000000
H    -0.492000000     2.309000000    -0.571000000
C    -0.782000000     0.186000000    -0.933000000
H    -1.471000000     0.277000000    -1.701000000
C    -0.555000000    -1.072000000    -0.428000000
H    -1.072000000    -1.870000000    -0.954000000
C     0.404000000    -1.261000000     0.540000000
H     0.662000000    -2.281000000     0.812000000
C     1.089000000    -0.218000000     1.174000000
C     2.047000000    -0.449000000     2.335000000
O     2.975000000     0.323000000     2.519000000
O     2.024000000    -1.560000000     2.798000000
