14
-81.36617
C     0.784000000     1.123000000     0.489000000
H     1.272000000     2.029000000     0.841000000
C    -0.042000000     1.164000000    -0.602000000
H    -0.048000000     2.091000000    -1.170000000
C    -0.699000000    -0.018000000    -1.014000000
H    -1.228000000     0.005000000    -1.968000000
C    -0.435000000    -1.247000000    -0.384000000
H    -0.916000000    -2.154000000    -0.740000000
C     0.231000000    -1.188000000     0.820000000
H     0.270000000    -2.084000000     1.434000000
C     0.943000000    -0.027000000     1.274000000
C     1.678000000     0.009000000     2.529000000
O     2.398000000     0.917000000     2.777000000
O     1.755000000    -1.007000000     3.232000000
