14
-87.97398
C    -1.182000000     0.834000000     0.098000000
H    -2.140000000     1.346000000     0.068000000
C    -0.815000000     0.231000000    -1.062000000
H    -1.396000000     0.500000000    -1.940000000
C     0.338000000    -0.504000000    -1.053000000
H     0.665000000    -0.914000000    -2.009000000
C     0.994000000    -0.769000000     0.152000000
H     1.808000000    -1.490000000     0.132000000
C     0.695000000    -0.061000000     1.264000000
H     1.222000000    -0.266000000     2.192000000
C    -0.446000000     0.754000000     1.295000000
C    -0.846000000     1.508000000     2.530000000
O    -1.258000000     2.664000000     2.470000000
O    -0.867000000     0.868000000     3.579000000
