14
-82.31208
C     0.404000000     1.295000000     0.549000000
H     0.745000000     2.307000000     0.748000000
C    -0.287000000     1.044000000    -0.638000000
H    -0.554000000     1.895000000    -1.259000000
C    -0.646000000    -0.203000000    -1.044000000
H    -1.246000000    -0.327000000    -1.950000000
C    -0.493000000    -1.255000000    -0.133000000
H    -0.945000000    -2.219000000    -0.349000000
C     0.300000000    -1.062000000     1.026000000
H     0.383000000    -1.907000000     1.706000000
C     0.815000000     0.171000000     1.340000000
C     1.652000000     0.356000000     2.568000000
O     2.066000000     1.468000000     2.803000000
O     2.066000000    -0.518000000     3.299000000
