14
-88.64436
C    -0.363000000     1.395000000    -0.065000000
H    -0.778000000     2.363000000    -0.334000000
C    -0.066000000     0.533000000    -1.183000000
H     0.033000000     0.963000000    -2.176000000
C     0.352000000    -0.742000000    -0.894000000
H     0.627000000    -1.439000000    -1.710000000
C     0.344000000    -1.199000000     0.383000000
H     0.602000000    -2.238000000     0.567000000
C    -0.095000000    -0.435000000     1.448000000
H     0.038000000    -0.728000000     2.487000000
C    -0.494000000     0.896000000     1.241000000
C    -0.803000000     1.862000000     2.360000000
O    -1.052000000     3.036000000     2.136000000
O    -0.844000000     1.399000000     3.514000000
