14
-87.46933
C    -0.436000000     1.264000000     0.688000000
H    -0.681000000     2.279000000     0.989000000
C    -0.165000000     1.086000000    -0.654000000
H    -0.086000000     1.928000000    -1.336000000
C     0.309000000    -0.147000000    -1.197000000
H     0.517000000    -0.196000000    -2.233000000
C     0.375000000    -1.222000000    -0.339000000
H     0.676000000    -2.183000000    -0.747000000
C    -0.005000000    -1.062000000     1.008000000
H    -0.014000000    -1.981000000     1.588000000
C    -0.443000000     0.173000000     1.553000000
C    -0.586000000     0.335000000     3.054000000
O    -1.186000000     1.348000000     3.527000000
O    -0.242000000    -0.518000000     3.835000000
