14
-89.33196
C    -0.715000000     1.265000000    -0.041000000
H    -1.327000000     2.152000000    -0.187000000
C    -0.204000000     0.565000000    -1.153000000
H    -0.302000000     1.013000000    -2.138000000
C     0.517000000    -0.607000000    -0.958000000
H     0.978000000    -1.082000000    -1.835000000
C     0.606000000    -1.133000000     0.333000000
H     1.169000000    -2.050000000     0.486000000
C     0.137000000    -0.420000000     1.435000000
H     0.267000000    -0.802000000     2.444000000
C    -0.695000000     0.666000000     1.233000000
C    -1.267000000     1.344000000     2.401000000
O    -1.788000000     2.450000000     2.334000000
O    -1.250000000     0.758000000     3.489000000
