14
-88.70611
C     1.070000000    -0.068000000    -0.987000000
H     1.924000000    -0.192000000    -1.648000000
C     1.051000000    -0.699000000     0.217000000
H     1.875000000    -1.315000000     0.569000000
C    -0.008000000    -0.537000000     1.111000000
H    -0.053000000    -1.004000000     2.065000000
C    -1.066000000     0.261000000     0.766000000
H    -1.813000000     0.553000000     1.499000000
C    -1.127000000     0.916000000    -0.473000000
H    -2.028000000     1.493000000    -0.663000000
C    -0.025000000     0.726000000    -1.383000000
C     0.002000000     1.232000000    -2.821000000
O    -1.116000000     1.435000000    -3.250000000
O     1.008000000     1.381000000    -3.503000000
