14
-80.82575
C    -0.571000000     1.267000000     0.387000000
H    -1.064000000     2.236000000     0.395000000
C     0.141000000     1.030000000    -0.737000000
H     0.261000000     1.872000000    -1.414000000
C     0.736000000    -0.216000000    -0.912000000
H     1.141000000    -0.392000000    -1.935000000
C     0.619000000    -1.227000000     0.009000000
H     1.109000000    -2.158000000    -0.261000000
C    -0.105000000    -0.981000000     1.219000000
H    -0.250000000    -1.679000000     2.040000000
C    -0.718000000     0.241000000     1.283000000
C    -1.717000000     0.548000000     2.395000000
O    -2.401000000     1.514000000     2.398000000
O    -1.933000000    -0.365000000     3.208000000
