14
-85.48237
C    -0.751000000     1.247000000     0.087000000
H    -1.346000000     2.157000000     0.062000000
C    -0.249000000     0.747000000    -1.115000000
H    -0.372000000     1.246000000    -2.072000000
C     0.581000000    -0.360000000    -1.044000000
H     0.949000000    -0.813000000    -1.940000000
C     0.703000000    -1.024000000     0.152000000
H     1.214000000    -1.983000000     0.134000000
C     0.183000000    -0.515000000     1.375000000
H     0.305000000    -1.122000000     2.268000000
C    -0.605000000     0.633000000     1.360000000
C    -1.300000000     1.049000000     2.577000000
O    -2.008000000     2.053000000     2.587000000
O    -1.047000000     0.556000000     3.676000000
