14
-84.97039
C     0.299000000     0.714000000     1.275000000
H     0.414000000     1.409000000     2.103000000
C     0.940000000     0.923000000     0.038000000
H     1.579000000     1.797000000    -0.063000000
C     0.651000000     0.099000000    -1.040000000
H     1.185000000     0.217000000    -1.973000000
C    -0.224000000    -0.974000000    -0.909000000
H    -0.385000000    -1.613000000    -1.773000000
C    -1.003000000    -1.086000000     0.267000000
H    -1.728000000    -1.893000000     0.339000000
C    -0.741000000    -0.266000000     1.337000000
C    -1.565000000    -0.398000000     2.631000000
O    -1.448000000     0.429000000     3.464000000
O    -2.440000000    -1.221000000     2.743000000
