14
-85.02744
C    -1.270000000     0.510000000     0.431000000
H    -2.174000000     1.060000000     0.680000000
C    -0.267000000     1.171000000    -0.216000000
H    -0.393000000     2.212000000    -0.503000000
C     0.911000000     0.540000000    -0.519000000
H     1.752000000     1.045000000    -0.970000000
C     1.047000000    -0.803000000    -0.437000000
H     1.932000000    -1.261000000    -0.871000000
C     0.107000000    -1.467000000     0.322000000
H     0.258000000    -2.520000000     0.543000000
C    -1.057000000    -0.808000000     0.762000000
C    -2.131000000    -1.511000000     1.551000000
O    -3.290000000    -1.189000000     1.461000000
O    -1.800000000    -2.327000000     2.440000000
