14
-84.10385
C    -0.438000000     0.855000000     1.096000000
H    -0.916000000     1.576000000     1.754000000
C     0.076000000     1.274000000    -0.104000000
H     0.255000000     2.338000000    -0.238000000
C     0.473000000     0.367000000    -1.044000000
H     1.060000000     0.776000000    -1.909000000
C     0.365000000    -0.983000000    -0.849000000
H     0.635000000    -1.741000000    -1.580000000
C    -0.246000000    -1.450000000     0.302000000
H    -0.359000000    -2.524000000     0.424000000
C    -0.586000000    -0.570000000     1.318000000
C    -1.126000000    -0.999000000     2.669000000
O    -1.586000000    -0.177000000     3.380000000
O    -1.218000000    -2.198000000     2.975000000
