14
-89.15759
C    -0.863000000     0.845000000     0.846000000
H    -1.523000000     1.526000000     1.376000000
C    -0.021000000     1.342000000    -0.143000000
H     0.139000000     2.391000000    -0.377000000
C     0.615000000     0.423000000    -0.924000000
H     1.341000000     0.780000000    -1.641000000
C     0.639000000    -0.950000000    -0.577000000
H     1.238000000    -1.625000000    -1.183000000
C    -0.152000000    -1.427000000     0.418000000
H    -0.089000000    -2.474000000     0.703000000
C    -0.965000000    -0.565000000     1.125000000
C    -1.725000000    -1.072000000     2.322000000
O    -2.242000000    -0.282000000     3.063000000
O    -1.822000000    -2.313000000     2.405000000
