14
-80.61428
C    -1.254000000     0.394000000     0.649000000
H    -2.122000000     0.798000000     1.163000000
C    -0.274000000     1.257000000     0.244000000
H    -0.349000000     2.304000000     0.525000000
C     0.862000000     0.806000000    -0.397000000
H     1.639000000     1.628000000    -0.723000000
C     1.058000000    -0.576000000    -0.638000000
H     1.864000000    -1.065000000    -1.178000000
C     0.037000000    -1.451000000    -0.143000000
H     0.200000000    -2.519000000    -0.264000000
C    -1.122000000    -0.936000000     0.426000000
C    -2.107000000    -1.963000000     0.978000000
O    -3.084000000    -1.585000000     1.566000000
O    -2.017000000    -3.112000000     0.685000000
