14
-87.13223
C    -1.369000000     0.444000000     0.108000000
H    -2.377000000     0.850000000     0.069000000
C    -0.602000000     0.502000000    -1.034000000
H    -1.123000000     0.930000000    -1.887000000
C     0.697000000     0.120000000    -1.052000000
H     1.332000000     0.258000000    -1.890000000
C     1.216000000    -0.485000000     0.093000000
H     2.230000000    -0.870000000     0.039000000
C     0.409000000    -0.650000000     1.260000000
H     0.745000000    -1.235000000     2.112000000
C    -0.885000000    -0.182000000     1.319000000
C    -1.772000000    -0.338000000     2.591000000
O    -2.942000000     0.095000000     2.596000000
O    -1.317000000    -0.811000000     3.581000000
