14
-79.44434
C    -0.733000000     0.783000000     1.024000000
H    -1.151000000     1.476000000     1.749000000
C    -0.005000000     1.288000000    -0.095000000
H     0.117000000     2.337000000    -0.352000000
C     0.640000000     0.454000000    -0.968000000
H     1.242000000     0.845000000    -1.803000000
C     0.466000000    -0.919000000    -0.793000000
H     0.795000000    -1.625000000    -1.552000000
C    -0.345000000    -1.414000000     0.200000000
H    -0.542000000    -2.476000000     0.323000000
C    -0.818000000    -0.621000000     1.213000000
C    -1.430000000    -1.182000000     2.474000000
O    -1.682000000    -0.480000000     3.433000000
O    -1.643000000    -2.330000000     2.589000000
