14
-85.17787
C     0.865000000    -0.179000000     1.194000000
H     1.330000000    -0.664000000     2.049000000
C    -0.462000000     0.178000000     1.242000000
H    -0.986000000     0.209000000     2.194000000
C    -1.139000000     0.439000000     0.035000000
H    -2.192000000     0.730000000     0.043000000
C    -0.524000000     0.122000000    -1.186000000
H    -0.937000000     0.240000000    -2.185000000
C     0.779000000    -0.322000000    -1.208000000
H     1.258000000    -0.507000000    -2.166000000
C     1.504000000    -0.370000000    -0.039000000
C     2.932000000    -0.811000000    -0.138000000
O     3.274000000    -1.392000000    -1.174000000
O     3.602000000    -0.908000000     0.880000000
