14
-81.99608
C    -0.631000000     1.294000000     0.220000000
H    -1.169000000     2.238000000     0.217000000
C    -0.485000000     0.695000000    -1.017000000
H    -0.803000000     1.147000000    -1.953000000
C     0.226000000    -0.534000000    -1.092000000
H     0.567000000    -0.963000000    -2.014000000
C     0.482000000    -1.210000000     0.074000000
H     1.011000000    -2.148000000    -0.078000000
C     0.289000000    -0.626000000     1.348000000
H     0.651000000    -1.057000000     2.278000000
C    -0.310000000     0.623000000     1.375000000
C    -0.625000000     1.292000000     2.695000000
O    -0.667000000     2.547000000     2.689000000
O    -0.888000000     0.730000000     3.679000000
