14
-84.90475
C    -0.738000000    -0.188000000     1.331000000
H    -1.236000000    -0.544000000     2.229000000
C    -1.257000000    -0.518000000     0.057000000
H    -2.139000000    -1.146000000    -0.043000000
C    -0.452000000    -0.347000000    -1.107000000
H    -0.859000000    -0.616000000    -2.137000000
C     0.749000000     0.342000000    -1.014000000
H     1.175000000     0.671000000    -1.958000000
C     1.256000000     0.731000000     0.278000000
H     2.235000000     1.203000000     0.263000000
C     0.536000000     0.392000000     1.426000000
C     1.133000000     0.693000000     2.753000000
O     0.546000000     0.451000000     3.741000000
O     2.254000000     1.239000000     2.740000000
