14
-81.35898
C    -1.026000000     0.994000000     0.355000000
H    -1.819000000     1.735000000     0.411000000
C    -0.513000000     0.796000000    -0.913000000
H    -0.860000000     1.447000000    -1.712000000
C     0.530000000    -0.045000000    -1.088000000
H     1.009000000    -0.101000000    -2.089000000
C     0.889000000    -0.863000000    -0.031000000
H     1.701000000    -1.561000000    -0.218000000
C     0.274000000    -0.824000000     1.205000000
H     0.598000000    -1.511000000     1.983000000
C    -0.685000000     0.168000000     1.435000000
C    -1.287000000     0.299000000     2.787000000
O    -2.316000000     0.876000000     2.866000000
O    -0.860000000    -0.413000000     3.646000000
