14
-87.22570
C    -0.685000000    -0.580000000     1.206000000
H    -1.205000000    -1.053000000     2.036000000
C    -1.149000000    -0.599000000    -0.139000000
H    -2.130000000    -1.013000000    -0.359000000
C    -0.341000000    -0.183000000    -1.141000000
H    -0.676000000    -0.331000000    -2.251000000
C     0.872000000     0.445000000    -0.906000000
H     1.417000000     0.910000000    -1.723000000
C     1.350000000     0.488000000     0.454000000
H     2.298000000     0.979000000     0.658000000
C     0.571000000    -0.026000000     1.418000000
C     0.995000000     0.194000000     2.899000000
O     0.376000000    -0.469000000     3.698000000
O     1.956000000     0.903000000     3.231000000
