14
-90.07625
C    -0.986000000     0.782000000     0.713000000
H    -1.783000000     1.391000000     1.131000000
C    -0.638000000     1.041000000    -0.626000000
H    -1.096000000     1.851000000    -1.189000000
C     0.361000000     0.278000000    -1.155000000
H     0.600000000     0.409000000    -2.208000000
C     1.055000000    -0.719000000    -0.390000000
H     1.830000000    -1.296000000    -0.887000000
C     0.592000000    -1.062000000     0.875000000
H     1.065000000    -1.844000000     1.464000000
C    -0.377000000    -0.302000000     1.450000000
C    -0.837000000    -0.512000000     2.901000000
O    -1.679000000     0.203000000     3.389000000
O    -0.210000000    -1.331000000     3.584000000
