14
-78.96394
C     1.297000000     0.821000000    -0.037000000
H     2.181000000     1.418000000     0.172000000
C     0.842000000    -0.023000000     0.973000000
H     1.381000000    -0.011000000     1.917000000
C    -0.236000000    -0.818000000     0.760000000
H    -0.365000000    -1.628000000     1.542000000
C    -1.009000000    -0.837000000    -0.378000000
H    -1.842000000    -1.526000000    -0.495000000
C    -0.696000000     0.120000000    -1.311000000
H    -1.289000000     0.223000000    -2.216000000
C     0.429000000     0.964000000    -1.142000000
C     0.585000000     2.114000000    -2.089000000
O    -0.212000000     2.290000000    -3.013000000
O     1.238000000     3.131000000    -1.828000000
