14
-92.11966
C     0.414000000    -0.200000000     1.365000000
H     0.705000000    -0.492000000     2.371000000
C    -0.700000000    -0.769000000     0.730000000
H    -1.394000000    -1.393000000     1.286000000
C    -0.928000000    -0.562000000    -0.628000000
H    -1.869000000    -0.941000000    -1.039000000
C    -0.066000000     0.240000000    -1.363000000
H    -0.327000000     0.490000000    -2.388000000
C     1.081000000     0.699000000    -0.727000000
H     1.823000000     1.249000000    -1.301000000
C     1.253000000     0.618000000     0.637000000
C     2.365000000     1.368000000     1.419000000
O     2.207000000     1.696000000     2.606000000
O     3.426000000     1.637000000     0.835000000
