14
-91.06760
C     0.363000000     0.309000000     1.380000000
H     0.681000000     0.542000000     2.393000000
C     0.453000000    -0.969000000     0.816000000
H     0.854000000    -1.804000000     1.385000000
C     0.104000000    -1.149000000    -0.470000000
H     0.044000000    -2.096000000    -0.901000000
C    -0.388000000    -0.041000000    -1.227000000
H    -0.739000000    -0.146000000    -2.250000000
C    -0.425000000     1.246000000    -0.713000000
H    -0.767000000     2.083000000    -1.317000000
C    -0.062000000     1.407000000     0.614000000
C    -0.098000000     2.823000000     1.260000000
O    -0.200000000     2.862000000     2.501000000
O    -0.199000000     3.812000000     0.584000000
