14
-85.31767
C    -0.097000000     0.455000000     1.383000000
H    -0.207000000     0.782000000     2.413000000
C    -0.618000000    -0.755000000     0.926000000
H    -1.200000000    -1.389000000     1.589000000
C    -0.400000000    -1.063000000    -0.415000000
H    -0.987000000    -1.962000000    -0.898000000
C     0.226000000    -0.178000000    -1.284000000
H     0.288000000    -0.468000000    -2.330000000
C     0.710000000     1.024000000    -0.794000000
H     1.295000000     1.623000000    -1.488000000
C     0.608000000     1.328000000     0.589000000
C     1.165000000     2.638000000     1.061000000
O     0.839000000     2.968000000     2.164000000
O     1.821000000     3.361000000     0.352000000
