14
-88.56660
C    -0.241000000     0.910000000    -1.135000000
H    -0.410000000     1.463000000    -2.055000000
C    -0.139000000    -0.474000000    -1.219000000
H    -0.219000000    -0.971000000    -2.183000000
C     0.131000000    -1.226000000    -0.112000000
H     0.339000000    -2.276000000    -0.103000000
C     0.261000000    -0.596000000     1.094000000
H     0.524000000    -1.174000000     1.977000000
C    -0.047000000     0.753000000     1.244000000
H    -0.014000000     1.193000000     2.238000000
C    -0.209000000     1.540000000     0.116000000
C    -0.392000000     3.096000000     0.227000000
O    -0.670000000     3.892000000    -0.652000000
O    -0.299000000     3.435000000     1.392000000
