14
-81.92032
C     0.467000000     1.333000000     0.427000000
H     0.935000000     2.299000000     0.600000000
C     1.295000000     0.240000000     0.308000000
H     2.363000000     0.434000000     0.373000000
C     0.742000000    -1.027000000    -0.051000000
H     1.350000000    -1.904000000    -0.214000000
C    -0.586000000    -1.112000000    -0.254000000
H    -1.011000000    -1.991000000    -0.731000000
C    -1.442000000     0.043000000    -0.142000000
H    -2.498000000    -0.147000000    -0.318000000
C    -0.937000000     1.252000000     0.312000000
C    -1.869000000     2.385000000     0.620000000
O    -1.388000000     3.447000000     1.021000000
O    -3.058000000     2.485000000     0.311000000
