14
-84.54249
C     0.723000000     1.160000000     0.122000000
H     1.419000000     1.924000000     0.458000000
C     1.327000000    -0.073000000    -0.119000000
H     2.398000000    -0.262000000    -0.147000000
C     0.424000000    -1.094000000    -0.110000000
H     0.864000000    -2.111000000    -0.251000000
C    -0.932000000    -0.943000000    -0.166000000
H    -1.580000000    -1.795000000    -0.352000000
C    -1.478000000     0.357000000     0.050000000
H    -2.561000000     0.426000000    -0.005000000
C    -0.622000000     1.457000000     0.176000000
C    -1.073000000     2.860000000     0.461000000
O    -0.353000000     3.857000000     0.223000000
O    -2.140000000     3.021000000     1.093000000
