14
-88.01709
C     0.911000000     0.939000000     0.600000000
H     1.605000000     1.567000000     1.152000000
C     0.960000000    -0.480000000     0.790000000
H     1.672000000    -0.900000000     1.496000000
C    -0.030000000    -1.212000000     0.119000000
H     0.037000000    -2.269000000     0.235000000
C    -0.979000000    -0.655000000    -0.683000000
H    -1.666000000    -1.295000000    -1.231000000
C    -0.999000000     0.729000000    -0.792000000
H    -1.763000000     1.235000000    -1.376000000
C    -0.046000000     1.547000000    -0.163000000
C    -0.078000000     3.073000000    -0.226000000
O    -0.890000000     3.600000000    -1.006000000
O     0.673000000     3.829000000     0.353000000
