14
-84.91294
C     0.578000000     0.371000000    -1.332000000
H     0.992000000     0.546000000    -2.322000000
C    -0.620000000    -0.324000000    -1.130000000
H    -1.130000000    -0.697000000    -2.015000000
C    -1.111000000    -0.526000000     0.116000000
H    -2.077000000    -0.961000000     0.278000000
C    -0.387000000    -0.064000000     1.200000000
H    -0.822000000    -0.291000000     2.169000000
C     0.806000000     0.595000000     1.036000000
H     1.283000000     0.911000000     1.960000000
C     1.385000000     0.759000000    -0.235000000
C     2.643000000     1.520000000    -0.431000000
O     3.295000000     1.329000000    -1.451000000
O     3.226000000     2.108000000     0.475000000
