14
-83.99858
C     0.428000000    -1.228000000    -0.777000000
H     0.720000000    -2.030000000    -1.450000000
C    -0.895000000    -0.874000000    -0.483000000
H    -1.757000000    -1.393000000    -0.893000000
C    -1.163000000     0.278000000     0.224000000
H    -2.273000000     0.602000000     0.335000000
C    -0.113000000     0.971000000     0.889000000
H    -0.437000000     1.794000000     1.521000000
C     1.195000000     0.668000000     0.578000000
H     2.006000000     1.321000000     0.888000000
C     1.451000000    -0.409000000    -0.324000000
C     2.873000000    -0.504000000    -0.907000000
O     3.131000000    -1.453000000    -1.642000000
O     3.843000000     0.115000000    -0.467000000
