14
-87.64220
C     1.168000000    -0.230000000    -0.786000000
H     1.973000000    -0.401000000    -1.496000000
C     0.031000000    -0.931000000    -0.901000000
H    -0.111000000    -1.652000000    -1.702000000
C    -1.041000000    -0.686000000    -0.068000000
H    -1.872000000    -1.394000000    -0.036000000
C    -0.854000000     0.291000000     0.916000000
H    -1.716000000     0.559000000     1.522000000
C     0.314000000     0.963000000     1.055000000
H     0.455000000     1.620000000     1.910000000
C     1.370000000     0.790000000     0.132000000
C     2.675000000     1.579000000     0.253000000
O     3.664000000     1.057000000    -0.252000000
O     2.745000000     2.506000000     1.051000000
