14
-84.27553
C     0.666000000    -1.209000000    -0.484000000
H     1.111000000    -2.106000000    -0.908000000
C    -0.679000000    -0.996000000    -0.533000000
H    -1.309000000    -1.797000000    -0.911000000
C    -1.256000000     0.144000000     0.059000000
H    -2.371000000     0.213000000     0.300000000
C    -0.353000000     1.106000000     0.628000000
H    -0.766000000     2.042000000     0.996000000
C     1.024000000     0.944000000     0.495000000
H     1.670000000     1.781000000     0.748000000
C     1.556000000    -0.315000000     0.123000000
C     3.051000000    -0.463000000    -0.132000000
O     3.517000000    -1.393000000    -0.791000000
O     3.839000000     0.242000000     0.517000000
