14
-80.36987
C     0.957000000    -1.030000000    -0.383000000
H     1.539000000    -1.902000000    -0.668000000
C    -0.347000000    -0.991000000    -0.831000000
H    -0.788000000    -1.874000000    -1.287000000
C    -1.191000000     0.012000000    -0.327000000
H    -2.228000000     0.014000000    -0.551000000
C    -0.682000000     1.036000000     0.461000000
H    -1.370000000     1.766000000     0.881000000
C     0.709000000     1.122000000     0.671000000
H     1.131000000     1.891000000     1.313000000
C     1.557000000     0.058000000     0.321000000
C     2.958000000     0.066000000     0.731000000
O     3.683000000    -0.764000000     0.286000000
O     3.464000000     0.946000000     1.390000000
