14
-87.79031
C     1.062000000    -0.919000000    -0.409000000
H     1.726000000    -1.669000000    -0.831000000
C    -0.055000000    -0.606000000    -1.197000000
H    -0.209000000    -0.993000000    -2.201000000
C    -1.023000000     0.161000000    -0.612000000
H    -1.875000000     0.368000000    -1.217000000
C    -0.750000000     0.912000000     0.517000000
H    -1.521000000     1.583000000     0.886000000
C     0.391000000     0.692000000     1.252000000
H     0.686000000     1.229000000     2.150000000
C     1.270000000    -0.267000000     0.801000000
C     2.500000000    -0.455000000     1.697000000
O     3.533000000    -0.753000000     1.088000000
O     2.403000000    -0.359000000     2.883000000
