14
-77.31622
C     1.223000000    -0.819000000    -0.523000000
H     1.915000000    -1.578000000    -0.876000000
C     0.082000000    -0.483000000    -1.266000000
H    -0.015000000    -0.848000000    -2.285000000
C    -0.967000000     0.232000000    -0.620000000
H    -1.828000000     0.496000000    -1.208000000
C    -0.877000000     0.701000000     0.647000000
H    -1.689000000     1.283000000     1.074000000
C     0.270000000     0.466000000     1.357000000
H     0.383000000     0.975000000     2.311000000
C     1.313000000    -0.241000000     0.749000000
C     2.470000000    -0.606000000     1.667000000
O     3.546000000    -1.016000000     1.312000000
O     2.378000000    -0.288000000     2.804000000
