14
-88.38532
C     0.252000000    -0.895000000    -1.146000000
H     0.448000000    -1.500000000    -2.027000000
C    -0.667000000     0.163000000    -1.133000000
H    -1.252000000     0.431000000    -2.009000000
C    -0.799000000     0.931000000    -0.063000000
H    -1.444000000     1.805000000    -0.180000000
C    -0.151000000     0.558000000     1.128000000
H    -0.300000000     1.128000000     2.041000000
C     0.758000000    -0.503000000     1.189000000
H     1.240000000    -0.786000000     2.120000000
C     1.105000000    -1.124000000    -0.002000000
C     2.164000000    -2.213000000     0.012000000
O     2.313000000    -2.883000000    -1.025000000
O     2.893000000    -2.382000000     1.001000000
