14
-91.61548
C     0.789000000     0.936000000     0.805000000
H     1.501000000     1.571000000     1.326000000
C     1.001000000    -0.426000000     0.794000000
H     1.911000000    -0.796000000     1.258000000
C     0.142000000    -1.218000000     0.095000000
H     0.310000000    -2.313000000    -0.009000000
C    -0.953000000    -0.655000000    -0.532000000
H    -1.633000000    -1.309000000    -1.073000000
C    -1.152000000     0.705000000    -0.579000000
H    -1.967000000     1.076000000    -1.196000000
C    -0.218000000     1.553000000     0.027000000
C    -0.431000000     3.067000000    -0.064000000
O    -1.025000000     3.589000000    -0.970000000
O     0.168000000     3.700000000     0.874000000
