14
-88.61832
C     0.172000000    -0.836000000    -1.224000000
H     0.016000000    -1.485000000    -2.081000000
C    -0.522000000     0.386000000    -1.160000000
H    -0.999000000     0.882000000    -2.001000000
C    -0.484000000     1.142000000     0.011000000
H    -0.846000000     2.125000000     0.033000000
C     0.074000000     0.554000000     1.158000000
H     0.025000000     1.072000000     2.113000000
C     0.736000000    -0.688000000     1.102000000
H     1.234000000    -1.131000000     1.961000000
C     0.763000000    -1.422000000    -0.080000000
C     1.216000000    -2.842000000    -0.144000000
O     1.022000000    -3.475000000    -1.192000000
O     1.589000000    -3.436000000     0.838000000
