14
-82.02130
C     1.064000000    -0.210000000    -1.081000000
H     1.408000000    -0.475000000    -2.078000000
C     0.086000000     0.763000000    -1.028000000
H    -0.163000000     1.384000000    -1.885000000
C    -0.692000000     0.970000000     0.129000000
H    -1.372000000     1.778000000     0.074000000
C    -0.555000000     0.150000000     1.194000000
H    -1.249000000     0.293000000     2.019000000
C     0.327000000    -0.923000000     1.128000000
H     0.219000000    -1.556000000     2.005000000
C     1.148000000    -1.120000000    -0.008000000
C     1.878000000    -2.351000000    -0.193000000
O     2.281000000    -2.598000000    -1.306000000
O     2.007000000    -3.123000000     0.766000000
