14
-74.99705
C     1.180000000    -0.687000000    -0.598000000
H     1.951000000    -1.127000000    -1.225000000
C     0.846000000     0.622000000    -0.836000000
H     1.420000000     1.155000000    -1.590000000
C    -0.195000000     1.236000000    -0.079000000
H    -0.498000000     2.266000000    -0.202000000
C    -0.972000000     0.459000000     0.802000000
H    -1.874000000     0.886000000     1.233000000
C    -0.691000000    -0.855000000     0.946000000
H    -1.301000000    -1.382000000     1.676000000
C     0.411000000    -1.483000000     0.294000000
C     0.746000000    -2.927000000     0.583000000
O     1.586000000    -3.438000000    -0.049000000
O    -0.068000000    -3.649000000     1.113000000
