14
-77.48709
C     0.116000000    -0.993000000    -1.148000000
H     0.206000000    -1.736000000    -1.936000000
C    -0.602000000     0.259000000    -1.201000000
H    -0.995000000     0.635000000    -2.142000000
C    -0.572000000     1.101000000    -0.112000000
H    -1.099000000     2.015000000    -0.044000000
C     0.007000000     0.655000000     1.130000000
H    -0.072000000     1.303000000     1.999000000
C     0.705000000    -0.570000000     1.203000000
H     1.195000000    -0.798000000     2.146000000
C     0.699000000    -1.373000000     0.079000000
C     1.283000000    -2.741000000     0.148000000
O     1.745000000    -3.279000000    -0.846000000
O     1.656000000    -3.305000000     1.173000000
