14
-89.67023
C     0.235000000    -0.744000000    -1.221000000
H     0.474000000    -1.109000000    -2.217000000
C    -0.128000000     0.556000000    -1.185000000
H    -0.208000000     1.061000000    -2.144000000
C    -0.322000000     1.196000000     0.029000000
H    -0.706000000     2.205000000     0.170000000
C    -0.102000000     0.494000000     1.244000000
H    -0.376000000     1.046000000     2.139000000
C     0.287000000    -0.863000000     1.208000000
H     0.465000000    -1.517000000     2.058000000
C     0.437000000    -1.473000000    -0.028000000
C     0.715000000    -2.969000000    -0.130000000
O     1.115000000    -3.429000000    -1.206000000
O     0.762000000    -3.656000000     0.908000000
