14
-82.59492
C     1.029000000     1.048000000    -0.025000000
H     1.873000000     1.731000000     0.028000000
C     1.293000000    -0.266000000     0.262000000
H     2.306000000    -0.573000000     0.508000000
C     0.200000000    -1.131000000     0.292000000
H     0.394000000    -2.239000000     0.410000000
C    -1.098000000    -0.775000000    -0.007000000
H    -1.904000000    -1.504000000     0.034000000
C    -1.350000000     0.548000000    -0.300000000
H    -2.368000000     0.906000000    -0.431000000
C    -0.288000000     1.488000000    -0.381000000
C    -0.547000000     2.850000000    -0.973000000
O    -1.557000000     3.168000000    -1.611000000
O     0.287000000     3.727000000    -0.938000000
