14
-82.49222
C     0.608000000     0.078000000    -1.306000000
H     0.970000000     0.265000000    -2.313000000
C     0.249000000     1.169000000    -0.502000000
H     0.321000000     2.198000000    -0.845000000
C    -0.317000000     0.951000000     0.731000000
H    -0.633000000     1.812000000     1.285000000
C    -0.642000000    -0.327000000     1.163000000
H    -1.192000000    -0.407000000     2.098000000
C    -0.200000000    -1.392000000     0.394000000
H    -0.443000000    -2.382000000     0.770000000
C     0.423000000    -1.248000000    -0.861000000
C     0.818000000    -2.377000000    -1.779000000
O     1.598000000    -2.211000000    -2.683000000
O     0.413000000    -3.550000000    -1.728000000
