14
-86.24512
C     1.015000000     0.581000000    -0.880000000
H     1.881000000     0.981000000    -1.400000000
C     0.570000000     1.163000000     0.321000000
H     1.178000000     1.965000000     0.733000000
C    -0.460000000     0.560000000     1.020000000
H    -0.760000000     0.892000000     1.990000000
C    -1.084000000    -0.597000000     0.486000000
H    -1.735000000    -1.118000000     1.184000000
C    -0.677000000    -1.080000000    -0.724000000
H    -1.276000000    -1.895000000    -1.123000000
C     0.402000000    -0.535000000    -1.408000000
C     0.911000000    -1.091000000    -2.727000000
O     1.912000000    -0.603000000    -3.277000000
O     0.205000000    -1.803000000    -3.369000000
