14
-86.55585
C     1.337000000     0.686000000    -0.067000000
H     2.341000000     1.067000000    -0.232000000
C     1.115000000    -0.656000000     0.313000000
H     1.930000000    -1.316000000     0.598000000
C    -0.199000000    -1.124000000     0.355000000
H    -0.501000000    -2.081000000     0.789000000
C    -1.258000000    -0.290000000    -0.007000000
H    -2.243000000    -0.747000000    -0.071000000
C    -1.038000000     0.995000000    -0.478000000
H    -1.855000000     1.667000000    -0.727000000
C     0.258000000     1.442000000    -0.537000000
C     0.406000000     2.878000000    -0.979000000
O    -0.515000000     3.718000000    -0.960000000
O     1.535000000     3.327000000    -1.112000000
