14
-88.64463
C    -0.666000000    -1.038000000    -0.774000000
H    -1.114000000    -1.776000000    -1.434000000
C     0.474000000    -0.291000000    -1.157000000
H     0.925000000    -0.354000000    -2.144000000
C     1.058000000     0.572000000    -0.263000000
H     1.944000000     1.105000000    -0.654000000
C     0.457000000     0.818000000     0.942000000
H     0.892000000     1.408000000     1.745000000
C    -0.671000000     0.154000000     1.306000000
H    -1.144000000     0.400000000     2.253000000
C    -1.256000000    -0.818000000     0.481000000
C    -2.535000000    -1.554000000     0.815000000
O    -3.335000000    -1.727000000    -0.115000000
O    -2.860000000    -1.702000000     1.968000000
