14
-79.31249
C     1.458000000    -0.337000000    -0.169000000
H     2.478000000    -0.702000000    -0.263000000
C     0.550000000    -1.019000000     0.669000000
H     0.903000000    -1.910000000     1.182000000
C    -0.746000000    -0.678000000     0.689000000
H    -1.418000000    -1.258000000     1.248000000
C    -1.229000000     0.491000000     0.004000000
H    -2.271000000     0.785000000     0.097000000
C    -0.343000000     1.211000000    -0.744000000
H    -0.664000000     2.075000000    -1.321000000
C     1.044000000     0.784000000    -0.840000000
C     1.984000000     1.650000000    -1.539000000
O     1.648000000     2.700000000    -2.088000000
O     3.171000000     1.460000000    -1.651000000
