14
-85.50684
C    -1.123000000    -0.740000000    -0.841000000
H    -1.689000000    -1.364000000    -1.529000000
C     0.158000000    -0.268000000    -1.316000000
H     0.609000000    -0.699000000    -2.206000000
C     1.078000000     0.503000000    -0.551000000
H     2.075000000     0.823000000    -0.872000000
C     0.649000000     0.815000000     0.748000000
H     1.361000000     1.240000000     1.451000000
C    -0.607000000     0.431000000     1.223000000
H    -0.807000000     0.657000000     2.267000000
C    -1.468000000    -0.372000000     0.440000000
C    -2.670000000    -0.960000000     1.212000000
O    -3.654000000    -1.142000000     0.524000000
O    -2.691000000    -1.126000000     2.417000000
