14
-86.07827
C    -1.032000000    -0.351000000    -0.959000000
H    -1.724000000    -0.664000000    -1.735000000
C     0.260000000     0.006000000    -1.282000000
H     0.652000000     0.082000000    -2.293000000
C     1.144000000     0.311000000    -0.277000000
H     2.205000000     0.486000000    -0.553000000
C     0.728000000     0.399000000     1.061000000
H     1.355000000     0.651000000     1.913000000
C    -0.588000000     0.126000000     1.367000000
H    -0.888000000     0.154000000     2.411000000
C    -1.487000000    -0.325000000     0.362000000
C    -2.871000000    -0.792000000     0.713000000
O    -3.696000000    -1.248000000    -0.093000000
O    -3.296000000    -0.793000000     1.866000000
