14
-91.42808
C    -1.088000000    -0.110000000    -0.993000000
H    -1.842000000    -0.093000000    -1.776000000
C     0.305000000    -0.081000000    -1.243000000
H     0.622000000    -0.199000000    -2.276000000
C     1.240000000    -0.011000000    -0.201000000
H     2.292000000     0.104000000    -0.475000000
C     0.759000000     0.109000000     1.107000000
H     1.497000000     0.216000000     1.898000000
C    -0.612000000     0.107000000     1.415000000
H    -0.913000000     0.269000000     2.447000000
C    -1.514000000    -0.035000000     0.342000000
C    -3.012000000    -0.212000000     0.615000000
O    -3.720000000    -0.550000000    -0.322000000
O    -3.477000000    -0.045000000     1.707000000
