14
-88.13197
C     1.451000000    -0.125000000    -0.024000000
H     2.521000000    -0.274000000     0.096000000
C     0.629000000    -1.068000000     0.562000000
H     0.993000000    -1.960000000     1.065000000
C    -0.741000000    -0.781000000     0.504000000
H    -1.337000000    -1.530000000     0.965000000
C    -1.246000000     0.330000000    -0.085000000
H    -2.300000000     0.584000000    -0.003000000
C    -0.371000000     1.290000000    -0.626000000
H    -0.854000000     2.182000000    -1.016000000
C     0.974000000     1.024000000    -0.699000000
C     1.903000000     2.049000000    -1.305000000
O     1.409000000     3.010000000    -1.827000000
O     3.107000000     1.830000000    -1.398000000
