14
-79.03146
C    -1.109000000    -0.807000000    -0.591000000
H    -1.867000000    -1.446000000    -1.037000000
C     0.193000000    -0.680000000    -1.138000000
H     0.540000000    -1.232000000    -2.008000000
C     1.155000000     0.073000000    -0.451000000
H     2.070000000     0.183000000    -0.899000000
C     0.843000000     0.781000000     0.719000000
H     1.555000000     1.421000000     1.235000000
C    -0.439000000     0.626000000     1.184000000
H    -0.708000000     1.027000000     2.158000000
C    -1.389000000    -0.186000000     0.601000000
C    -2.771000000    -0.411000000     1.223000000
O    -3.732000000    -0.953000000     0.719000000
O    -3.076000000     0.237000000     2.210000000
