14
-81.35169
C    -1.033000000    -0.753000000    -0.862000000
H    -1.669000000    -1.389000000    -1.472000000
C     0.212000000    -0.196000000    -1.274000000
H     0.606000000    -0.357000000    -2.275000000
C     1.061000000     0.440000000    -0.371000000
H     2.103000000     0.732000000    -0.647000000
C     0.723000000     0.627000000     0.971000000
H     1.470000000     1.060000000     1.632000000
C    -0.465000000     0.108000000     1.387000000
H    -0.710000000     0.251000000     2.436000000
C    -1.412000000    -0.549000000     0.518000000
C    -2.753000000    -1.069000000     1.053000000
O    -3.459000000    -1.694000000     0.282000000
O    -3.248000000    -0.527000000     1.997000000
