14
-86.95871
C    -0.928000000    -0.823000000    -0.753000000
H    -1.614000000    -1.283000000    -1.460000000
C     0.198000000    -0.305000000    -1.246000000
H     0.531000000    -0.566000000    -2.247000000
C     1.037000000     0.432000000    -0.453000000
H     1.990000000     0.836000000    -0.747000000
C     0.664000000     0.682000000     0.865000000
H     1.291000000     1.320000000     1.483000000
C    -0.428000000    -0.004000000     1.379000000
H    -0.678000000     0.255000000     2.405000000
C    -1.284000000    -0.723000000     0.555000000
C    -2.686000000    -1.084000000     1.014000000
O    -3.279000000    -1.918000000     0.324000000
O    -3.204000000    -0.528000000     1.993000000
