14
-83.69266
C    -0.032000000     1.528000000     0.115000000
H     0.083000000     2.579000000     0.363000000
C     1.087000000     0.748000000    -0.211000000
H     2.013000000     1.277000000    -0.421000000
C     0.970000000    -0.645000000    -0.211000000
H     1.778000000    -1.259000000    -0.580000000
C    -0.243000000    -1.282000000    -0.094000000
H    -0.339000000    -2.339000000    -0.328000000
C    -1.335000000    -0.529000000     0.185000000
H    -2.271000000    -1.012000000     0.451000000
C    -1.186000000     0.830000000     0.387000000
C    -2.396000000     1.573000000     0.880000000
O    -2.597000000     2.748000000     0.580000000
O    -3.173000000     0.999000000     1.583000000
