14
-79.15923
C    -0.970000000     0.860000000    -0.756000000
H    -1.560000000     1.624000000    -1.256000000
C     0.369000000     0.697000000    -1.080000000
H     0.765000000     1.242000000    -1.932000000
C     1.117000000    -0.293000000    -0.376000000
H     2.045000000    -0.660000000    -0.766000000
C     0.568000000    -0.987000000     0.621000000
H     1.100000000    -1.792000000     1.121000000
C    -0.729000000    -0.733000000     1.039000000
H    -1.106000000    -1.310000000     1.880000000
C    -1.544000000     0.190000000     0.303000000
C    -2.920000000     0.610000000     0.852000000
O    -3.730000000     1.229000000     0.234000000
O    -3.135000000     0.320000000     1.978000000
