14
-84.85035
C    -0.371000000     1.425000000     0.164000000
H    -0.688000000     2.464000000     0.121000000
C     0.453000000     0.917000000    -0.816000000
H     0.805000000     1.557000000    -1.621000000
C     0.807000000    -0.442000000    -0.848000000
H     1.426000000    -0.884000000    -1.572000000
C     0.208000000    -1.287000000     0.133000000
H     0.413000000    -2.348000000     0.021000000
C    -0.664000000    -0.781000000     1.085000000
H    -1.111000000    -1.378000000     1.876000000
C    -1.001000000     0.608000000     1.084000000
C    -1.918000000     1.176000000     2.127000000
O    -2.410000000     2.252000000     1.978000000
O    -2.330000000     0.455000000     2.989000000
