14
-87.98423
C     0.246000000     1.265000000    -0.784000000
H     0.563000000     2.171000000    -1.294000000
C     1.152000000     0.192000000    -0.622000000
H     2.117000000     0.193000000    -1.123000000
C     0.804000000    -0.991000000     0.104000000
H     1.468000000    -1.850000000     0.154000000
C    -0.487000000    -1.079000000     0.533000000
H    -0.859000000    -1.955000000     1.059000000
C    -1.350000000     0.059000000     0.567000000
H    -2.329000000     0.111000000     1.037000000
C    -1.008000000     1.222000000    -0.150000000
C    -2.004000000     2.401000000    -0.139000000
O    -1.543000000     3.512000000    -0.298000000
O    -3.155000000     2.244000000     0.183000000
