14
-81.43193
C    -1.131000000     0.772000000     0.732000000
H    -1.640000000     1.470000000     1.392000000
C     0.084000000     0.339000000     1.267000000
H     0.363000000     0.666000000     2.266000000
C     1.020000000    -0.472000000     0.529000000
H     1.957000000    -0.874000000     0.837000000
C     0.662000000    -0.748000000    -0.785000000
H     1.266000000    -1.468000000    -1.331000000
C    -0.493000000    -0.321000000    -1.317000000
H    -0.619000000    -0.772000000    -2.298000000
C    -1.406000000     0.501000000    -0.623000000
C    -2.521000000     1.130000000    -1.391000000
O    -3.244000000     1.971000000    -0.808000000
O    -2.774000000     0.805000000    -2.528000000
