14
-79.38689
C     0.817000000     1.180000000    -0.493000000
H     1.445000000     1.998000000    -0.836000000
C     1.021000000     0.492000000     0.724000000
H     1.726000000     0.822000000     1.483000000
C     0.271000000    -0.650000000     1.002000000
H     0.500000000    -1.328000000     1.858000000
C    -0.798000000    -0.982000000     0.232000000
H    -1.441000000    -1.825000000     0.474000000
C    -1.121000000    -0.160000000    -0.861000000
H    -2.017000000    -0.336000000    -1.449000000
C    -0.271000000     0.835000000    -1.327000000
C    -0.512000000     1.480000000    -2.644000000
O     0.405000000     1.968000000    -3.202000000
O    -1.505000000     1.270000000    -3.342000000
