14
-79.95062
C     1.193000000     0.047000000    -0.804000000
H     2.193000000     0.168000000    -1.213000000
C     1.008000000    -0.873000000     0.172000000
H     1.814000000    -1.572000000     0.378000000
C    -0.193000000    -0.802000000     0.921000000
H    -0.345000000    -1.571000000     1.673000000
C    -1.274000000     0.066000000     0.544000000
H    -2.260000000    -0.005000000     0.997000000
C    -0.995000000     1.001000000    -0.496000000
H    -1.699000000     1.765000000    -0.814000000
C     0.193000000     1.015000000    -1.202000000
C     0.449000000     1.962000000    -2.322000000
O     1.474000000     1.947000000    -2.993000000
O    -0.312000000     2.842000000    -2.548000000
