14
-81.66260
C     1.090000000     0.920000000    -0.477000000
H     1.999000000     1.483000000    -0.673000000
C     1.057000000     0.024000000     0.627000000
H     1.959000000    -0.115000000     1.218000000
C     0.024000000    -0.774000000     0.997000000
H     0.041000000    -1.514000000     1.760000000
C    -1.167000000    -0.514000000     0.398000000
H    -2.115000000    -0.932000000     0.725000000
C    -1.227000000     0.395000000    -0.662000000
H    -2.190000000     0.489000000    -1.158000000
C    -0.102000000     1.018000000    -1.202000000
C    -0.099000000     1.858000000    -2.469000000
O     0.881000000     2.375000000    -2.961000000
O    -1.106000000     1.788000000    -3.159000000
