14
-82.93427
C    -0.665000000     1.313000000    -0.067000000
H    -1.197000000     2.261000000    -0.054000000
C     0.165000000     0.850000000     0.951000000
H     0.286000000     1.515000000     1.803000000
C     0.774000000    -0.356000000     0.909000000
H     1.478000000    -0.772000000     1.659000000
C     0.416000000    -1.207000000    -0.100000000
H     0.735000000    -2.237000000    -0.237000000
C    -0.396000000    -0.724000000    -1.149000000
H    -0.725000000    -1.401000000    -1.933000000
C    -0.903000000     0.525000000    -1.219000000
C    -1.856000000     0.878000000    -2.305000000
O    -2.488000000     1.907000000    -2.280000000
O    -2.196000000    -0.023000000    -3.069000000
