14
-87.57575
C     0.316000000     0.575000000     1.348000000
H     0.602000000     0.884000000     2.350000000
C    -0.138000000    -0.720000000     1.091000000
H    -0.186000000    -1.397000000     1.940000000
C    -0.361000000    -1.206000000    -0.215000000
H    -0.626000000    -2.232000000    -0.426000000
C    -0.123000000    -0.298000000    -1.214000000
H    -0.285000000    -0.738000000    -2.195000000
C     0.030000000     1.076000000    -0.946000000
H    -0.001000000     1.767000000    -1.785000000
C     0.312000000     1.537000000     0.323000000
C     0.684000000     3.089000000     0.534000000
O     0.950000000     3.435000000     1.675000000
O     0.443000000     3.880000000    -0.356000000
