14
-86.78803
C     0.720000000     1.305000000    -0.080000000
H     1.190000000     2.285000000    -0.069000000
C    -0.570000000     1.051000000     0.428000000
H    -1.179000000     1.867000000     0.810000000
C    -1.120000000    -0.165000000     0.425000000
H    -2.102000000    -0.288000000     0.752000000
C    -0.378000000    -1.288000000    -0.021000000
H    -0.931000000    -2.218000000     0.075000000
C     0.907000000    -1.065000000    -0.535000000
H     1.462000000    -1.980000000    -0.727000000
C     1.475000000     0.232000000    -0.592000000
C     2.840000000     0.412000000    -1.160000000
O     3.510000000     1.388000000    -0.811000000
O     3.425000000    -0.456000000    -1.852000000
