14
-86.52942
C     0.994000000     0.834000000     0.771000000
H     1.602000000     1.533000000     1.340000000
C     0.013000000     0.018000000     1.342000000
H    -0.004000000    -0.146000000     2.416000000
C    -0.907000000    -0.667000000     0.565000000
H    -1.788000000    -1.133000000     1.070000000
C    -0.796000000    -0.659000000    -0.817000000
H    -1.453000000    -1.176000000    -1.511000000
C     0.157000000     0.241000000    -1.355000000
H     0.243000000     0.254000000    -2.439000000
C     1.099000000     0.893000000    -0.655000000
C     2.180000000     1.745000000    -1.320000000
O     3.067000000     2.297000000    -0.634000000
O     2.175000000     1.938000000    -2.505000000
