14
-79.22274
C     0.621000000     1.384000000     0.013000000
H     1.039000000     2.387000000    -0.035000000
C    -0.699000000     1.145000000     0.302000000
H    -1.427000000     1.936000000     0.460000000
C    -1.175000000    -0.180000000     0.203000000
H    -2.247000000    -0.524000000     0.386000000
C    -0.310000000    -1.204000000     0.003000000
H    -0.676000000    -2.227000000     0.001000000
C     1.032000000    -1.000000000    -0.260000000
H     1.617000000    -1.889000000    -0.479000000
C     1.530000000     0.346000000    -0.223000000
C     3.016000000     0.589000000    -0.496000000
O     3.422000000     1.661000000    -0.799000000
O     3.738000000    -0.254000000    -0.085000000
