14
-87.59744
C     0.974000000     0.607000000     0.896000000
H     1.688000000     0.945000000     1.644000000
C    -0.319000000     0.222000000     1.258000000
H    -0.552000000     0.152000000     2.318000000
C    -1.174000000    -0.341000000     0.277000000
H    -2.193000000    -0.661000000     0.565000000
C    -0.703000000    -0.419000000    -1.047000000
H    -1.340000000    -0.927000000    -1.766000000
C     0.599000000     0.009000000    -1.409000000
H     0.930000000    -0.225000000    -2.418000000
C     1.419000000     0.538000000    -0.401000000
C     2.876000000     0.972000000    -0.661000000
O     3.736000000     0.771000000     0.178000000
O     3.244000000     1.166000000    -1.829000000
