14
-83.00586
C     1.336000000     0.478000000     0.572000000
H     2.226000000     0.844000000     1.077000000
C     0.107000000     0.364000000     1.327000000
H     0.053000000     0.651000000     2.374000000
C    -1.016000000    -0.133000000     0.683000000
H    -1.909000000    -0.198000000     1.288000000
C    -0.968000000    -0.382000000    -0.668000000
H    -1.837000000    -0.717000000    -1.229000000
C     0.185000000    -0.247000000    -1.449000000
H     0.255000000    -0.545000000    -2.492000000
C     1.309000000     0.304000000    -0.793000000
C     2.468000000     0.577000000    -1.673000000
O     3.447000000     1.185000000    -1.258000000
O     2.512000000     0.233000000    -2.816000000
