14
-85.45014
C     1.142000000    -0.859000000    -0.133000000
H     1.910000000    -1.627000000    -0.160000000
C     0.205000000    -0.977000000     0.890000000
H     0.326000000    -1.817000000     1.569000000
C    -0.826000000    -0.068000000     0.906000000
H    -1.472000000    -0.167000000     1.738000000
C    -0.928000000     0.910000000    -0.023000000
H    -1.707000000     1.668000000     0.012000000
C    -0.049000000     0.886000000    -1.171000000
H    -0.151000000     1.595000000    -1.989000000
C     1.092000000     0.104000000    -1.127000000
C     2.070000000     0.155000000    -2.259000000
O     2.107000000     1.078000000    -3.054000000
O     2.955000000    -0.679000000    -2.256000000
