14
-82.84480
C     0.476000000     1.419000000    -0.049000000
H     0.822000000     2.449000000    -0.086000000
C    -0.764000000     0.998000000     0.474000000
H    -1.456000000     1.731000000     0.881000000
C    -1.159000000    -0.347000000     0.363000000
H    -2.151000000    -0.763000000     0.631000000
C    -0.237000000    -1.282000000    -0.056000000
H    -0.478000000    -2.341000000    -0.103000000
C     0.985000000    -0.890000000    -0.486000000
H     1.621000000    -1.701000000    -0.832000000
C     1.366000000     0.432000000    -0.541000000
C     2.775000000     0.832000000    -0.932000000
O     3.224000000     1.974000000    -0.982000000
O     3.506000000    -0.049000000    -1.239000000
