14
-89.53024
C     0.840000000     1.009000000     0.728000000
H     1.341000000     1.838000000     1.221000000
C    -0.550000000     0.833000000     0.966000000
H    -1.040000000     1.486000000     1.684000000
C    -1.157000000    -0.239000000     0.298000000
H    -2.243000000    -0.367000000     0.429000000
C    -0.474000000    -1.006000000    -0.586000000
H    -0.988000000    -1.853000000    -1.033000000
C     0.904000000    -0.780000000    -0.818000000
H     1.404000000    -1.459000000    -1.504000000
C     1.476000000     0.340000000    -0.307000000
C     2.891000000     0.722000000    -0.715000000
O     3.516000000     1.476000000     0.034000000
O     3.384000000     0.347000000    -1.776000000
