14
-82.13287
C     0.550000000     1.253000000     0.656000000
H     0.821000000     2.190000000     1.136000000
C    -0.509000000     0.471000000     1.138000000
H    -1.112000000     0.808000000     1.977000000
C    -0.932000000    -0.658000000     0.520000000
H    -1.912000000    -1.047000000     0.880000000
C    -0.374000000    -1.058000000    -0.686000000
H    -0.782000000    -1.976000000    -1.102000000
C     0.701000000    -0.262000000    -1.210000000
H     1.229000000    -0.547000000    -2.116000000
C     1.242000000     0.877000000    -0.542000000
C     2.481000000     1.588000000    -1.162000000
O     2.935000000     2.644000000    -0.623000000
O     2.955000000     1.296000000    -2.238000000
