14
-88.58409
C     1.134000000     0.384000000     0.875000000
H     1.895000000     0.624000000     1.612000000
C     0.547000000    -0.851000000     0.838000000
H     0.767000000    -1.622000000     1.572000000
C    -0.440000000    -1.122000000    -0.179000000
H    -0.886000000    -2.129000000    -0.285000000
C    -0.922000000    -0.134000000    -1.003000000
H    -1.607000000    -0.278000000    -1.834000000
C    -0.314000000     1.087000000    -0.894000000
H    -0.737000000     1.838000000    -1.556000000
C     0.784000000     1.374000000     0.000000000
C     1.358000000     2.768000000     0.110000000
O     2.400000000     2.975000000     0.747000000
O     0.778000000     3.682000000    -0.478000000
