14
-86.35726
C     0.552000000    -1.094000000    -0.710000000
H     0.948000000    -1.991000000    -1.179000000
C    -0.336000000    -1.185000000     0.368000000
H    -0.508000000    -2.201000000     0.713000000
C    -0.849000000    -0.049000000     1.030000000
H    -1.498000000    -0.066000000     1.896000000
C    -0.479000000     1.165000000     0.444000000
H    -0.866000000     2.097000000     0.848000000
C     0.366000000     1.241000000    -0.696000000
H     0.562000000     2.228000000    -1.108000000
C     1.056000000     0.114000000    -1.288000000
C     1.972000000     0.092000000    -2.496000000
O     1.982000000     1.063000000    -3.223000000
O     2.766000000    -0.832000000    -2.636000000
