14
-89.45968
C     1.237000000     0.192000000     0.867000000
H     2.082000000     0.310000000     1.540000000
C    -0.041000000    -0.106000000     1.338000000
H    -0.186000000    -0.256000000     2.405000000
C    -1.069000000    -0.322000000     0.429000000
H    -2.093000000    -0.538000000     0.831000000
C    -0.834000000    -0.290000000    -0.960000000
H    -1.673000000    -0.193000000    -1.643000000
C     0.417000000     0.015000000    -1.397000000
H     0.568000000     0.105000000    -2.470000000
C     1.428000000     0.318000000    -0.504000000
C     2.768000000     0.781000000    -1.038000000
O     3.769000000     0.383000000    -0.439000000
O     2.809000000     1.266000000    -2.145000000
