14
-83.65364
C     1.203000000     0.290000000     0.824000000
H     1.961000000     0.576000000     1.549000000
C     0.001000000    -0.221000000     1.317000000
H    -0.128000000    -0.326000000     2.391000000
C    -1.086000000    -0.443000000     0.422000000
H    -2.101000000    -0.645000000     0.699000000
C    -0.889000000    -0.256000000    -0.953000000
H    -1.778000000    -0.449000000    -1.548000000
C     0.379000000     0.273000000    -1.434000000
H     0.554000000     0.536000000    -2.474000000
C     1.385000000     0.590000000    -0.548000000
C     2.719000000     1.149000000    -0.949000000
O     3.631000000     1.179000000    -0.145000000
O     2.973000000     1.413000000    -2.088000000
