14
-82.21354
C     1.132000000    -0.617000000     0.754000000
H     1.889000000    -1.223000000     1.246000000
C    -0.022000000    -1.206000000     0.271000000
H    -0.146000000    -2.262000000     0.497000000
C    -1.087000000    -0.547000000    -0.414000000
H    -2.002000000    -1.035000000    -0.672000000
C    -0.933000000     0.813000000    -0.737000000
H    -1.672000000     1.264000000    -1.394000000
C     0.250000000     1.395000000    -0.172000000
H     0.481000000     2.430000000    -0.409000000
C     1.298000000     0.697000000     0.464000000
C     2.551000000     1.437000000     1.045000000
O     3.294000000     0.806000000     1.740000000
O     2.870000000     2.505000000     0.575000000
