14
-86.91908
C     0.923000000    -0.648000000     0.944000000
H     1.654000000    -1.228000000     1.500000000
C    -0.199000000    -1.242000000     0.374000000
H    -0.574000000    -2.250000000     0.533000000
C    -0.983000000    -0.513000000    -0.469000000
H    -1.815000000    -1.128000000    -0.924000000
C    -0.676000000     0.805000000    -0.783000000
H    -1.198000000     1.424000000    -1.508000000
C     0.365000000     1.428000000    -0.143000000
H     0.761000000     2.397000000    -0.438000000
C     1.213000000     0.713000000     0.714000000
C     2.433000000     1.275000000     1.379000000
O     2.954000000     0.698000000     2.326000000
O     2.941000000     2.376000000     1.021000000
