14
-84.32071
C     1.382000000     0.114000000     0.424000000
H     2.454000000     0.115000000     0.603000000
C     0.849000000    -0.907000000    -0.359000000
H     1.542000000    -1.590000000    -0.844000000
C    -0.532000000    -0.995000000    -0.614000000
H    -0.959000000    -1.770000000    -1.239000000
C    -1.294000000     0.098000000    -0.210000000
H    -2.362000000     0.130000000    -0.412000000
C    -0.705000000     1.197000000     0.526000000
H    -1.407000000     1.965000000     0.840000000
C     0.658000000     1.238000000     0.744000000
C     1.267000000     2.416000000     1.454000000
O     2.469000000     2.519000000     1.589000000
O     0.507000000     3.163000000     1.956000000
