14
-83.89672
C     1.475000000    -0.003000000     0.488000000
H     2.543000000    -0.078000000     0.680000000
C     0.984000000    -0.736000000    -0.610000000
H     1.694000000    -1.305000000    -1.204000000
C    -0.366000000    -0.655000000    -0.954000000
H    -0.773000000    -1.236000000    -1.757000000
C    -1.287000000     0.154000000    -0.230000000
H    -2.332000000     0.107000000    -0.525000000
C    -0.813000000     0.879000000     0.799000000
H    -1.528000000     1.520000000     1.309000000
C     0.515000000     0.822000000     1.206000000
C     0.926000000     1.718000000     2.397000000
O     1.979000000     1.429000000     2.956000000
O     0.102000000     2.372000000     3.007000000
