14
-83.99038
C     1.008000000     0.444000000     0.884000000
H     1.867000000     0.767000000     1.466000000
C     1.103000000    -0.608000000     0.060000000
H     2.037000000    -1.159000000    -0.016000000
C     0.065000000    -0.983000000    -0.734000000
H     0.130000000    -1.801000000    -1.432000000
C    -1.088000000    -0.233000000    -0.769000000
H    -1.874000000    -0.627000000    -1.408000000
C    -1.212000000     0.864000000     0.064000000
H    -2.076000000     1.489000000     0.273000000
C    -0.110000000     1.253000000     0.847000000
C    -0.194000000     2.432000000     1.810000000
O     0.889000000     2.738000000     2.342000000
O    -1.119000000     3.279000000     1.847000000
