14
-90.84501
C     1.097000000     0.401000000     0.908000000
H     1.833000000     0.484000000     1.704000000
C     1.091000000    -0.780000000     0.158000000
H     1.784000000    -1.612000000     0.243000000
C     0.020000000    -1.000000000    -0.680000000
H     0.022000000    -1.992000000    -1.221000000
C    -0.948000000    -0.027000000    -0.956000000
H    -1.745000000    -0.264000000    -1.656000000
C    -0.904000000     1.145000000    -0.241000000
H    -1.575000000     1.972000000    -0.458000000
C     0.027000000     1.317000000     0.811000000
C     0.002000000     2.598000000     1.659000000
O     1.072000000     2.953000000     2.231000000
O    -1.020000000     3.279000000     1.804000000
