14
-84.58468
C     1.302000000    -0.271000000     0.749000000
H     2.209000000    -0.570000000     1.268000000
C     0.846000000    -0.921000000    -0.417000000
H     1.315000000    -1.862000000    -0.694000000
C    -0.289000000    -0.527000000    -1.100000000
H    -0.528000000    -1.115000000    -1.984000000
C    -1.042000000     0.475000000    -0.557000000
H    -1.983000000     0.754000000    -1.025000000
C    -0.685000000     1.075000000     0.623000000
H    -1.329000000     1.890000000     0.943000000
C     0.525000000     0.792000000     1.257000000
C     0.934000000     1.656000000     2.456000000
O     2.086000000     1.945000000     2.662000000
O     0.137000000     1.817000000     3.364000000
