14
-90.65718
C     0.615000000     0.505000000     1.255000000
H     1.024000000     0.694000000     2.244000000
C     0.591000000    -0.811000000     0.822000000
H     1.048000000    -1.565000000     1.457000000
C     0.051000000    -1.144000000    -0.404000000
H     0.050000000    -2.272000000    -0.751000000
C    -0.484000000    -0.150000000    -1.232000000
H    -0.977000000    -0.448000000    -2.153000000
C    -0.504000000     1.198000000    -0.745000000
H    -0.926000000     1.915000000    -1.444000000
C    -0.032000000     1.507000000     0.515000000
C    -0.122000000     2.884000000     0.992000000
O     0.585000000     3.178000000     1.969000000
O    -0.836000000     3.701000000     0.388000000
