14
-84.61303
C     1.433000000     0.152000000    -0.027000000
H     2.517000000     0.083000000    -0.073000000
C     0.695000000    -0.905000000    -0.549000000
H     1.169000000    -1.732000000    -1.074000000
C    -0.670000000    -0.949000000    -0.405000000
H    -1.225000000    -1.706000000    -0.941000000
C    -1.311000000     0.210000000     0.099000000
H    -2.392000000     0.267000000    -0.006000000
C    -0.587000000     1.305000000     0.595000000
H    -1.057000000     2.018000000     1.268000000
C     0.823000000     1.291000000     0.545000000
C     1.668000000     2.383000000     1.191000000
O     2.872000000     2.317000000     1.181000000
O     1.172000000     3.339000000     1.761000000
