14
-84.18621
C     1.058000000     0.363000000     0.936000000
H     1.883000000     0.401000000     1.643000000
C     1.124000000    -0.731000000    -0.027000000
H     1.988000000    -1.377000000    -0.159000000
C     0.052000000    -0.919000000    -0.853000000
H     0.030000000    -1.679000000    -1.577000000
C    -1.052000000    -0.040000000    -0.794000000
H    -1.887000000    -0.242000000    -1.460000000
C    -1.070000000     0.998000000     0.145000000
H    -1.886000000     1.709000000     0.249000000
C    -0.036000000     1.185000000     1.037000000
C    -0.134000000     2.251000000     2.108000000
O     0.634000000     2.312000000     3.002000000
O    -0.990000000     3.128000000     2.043000000
