14
-88.86514
C     1.422000000     0.291000000     0.224000000
H     2.478000000     0.506000000     0.365000000
C     0.943000000    -0.868000000    -0.454000000
H     1.647000000    -1.603000000    -0.837000000
C    -0.412000000    -1.060000000    -0.490000000
H    -0.831000000    -1.971000000    -0.866000000
C    -1.303000000    -0.075000000    -0.001000000
H    -2.372000000    -0.214000000    -0.138000000
C    -0.800000000     1.171000000     0.486000000
H    -1.487000000     1.827000000     1.014000000
C     0.555000000     1.348000000     0.630000000
C     1.109000000     2.657000000     1.102000000
O     2.242000000     2.673000000     1.551000000
O     0.399000000     3.651000000     1.123000000
