14
-85.02778
C     1.261000000     0.034000000     0.741000000
H     2.250000000     0.017000000     1.192000000
C     1.024000000    -0.569000000    -0.480000000
H     1.809000000    -1.168000000    -0.934000000
C    -0.212000000    -0.638000000    -1.072000000
H    -0.473000000    -1.237000000    -1.908000000
C    -1.279000000     0.112000000    -0.512000000
H    -2.297000000     0.199000000    -0.882000000
C    -1.013000000     0.819000000     0.699000000
H    -1.868000000     1.300000000     1.167000000
C     0.248000000     0.830000000     1.318000000
C     0.471000000     1.605000000     2.576000000
O     1.531000000     1.533000000     3.135000000
O    -0.428000000     2.195000000     3.171000000
