14
-86.05166
C    -0.097000000     0.179000000     1.500000000
H     0.073000000     0.476000000     2.532000000
C     0.549000000    -0.892000000     0.890000000
H     1.173000000    -1.473000000     1.565000000
C     0.493000000    -1.091000000    -0.514000000
H     0.928000000    -1.925000000    -0.985000000
C    -0.190000000    -0.149000000    -1.320000000
H    -0.252000000    -0.282000000    -2.397000000
C    -0.796000000     0.995000000    -0.674000000
H    -1.287000000     1.761000000    -1.268000000
C    -0.656000000     1.233000000     0.724000000
C    -1.234000000     2.527000000     1.283000000
O    -1.463000000     2.605000000     2.484000000
O    -1.490000000     3.497000000     0.587000000
