14
-85.76482
C     0.160000000     0.765000000     1.262000000
H     0.091000000     1.019000000     2.317000000
C     0.698000000    -0.521000000     1.002000000
H     1.144000000    -1.056000000     1.837000000
C     0.521000000    -1.092000000    -0.287000000
H     0.928000000    -2.149000000    -0.331000000
C    -0.123000000    -0.387000000    -1.314000000
H    -0.432000000    -0.771000000    -2.283000000
C    -0.599000000     0.951000000    -1.090000000
H    -1.060000000     1.608000000    -1.823000000
C    -0.506000000     1.456000000     0.210000000
C    -1.264000000     2.710000000     0.624000000
O    -0.760000000     3.359000000     1.578000000
O    -2.117000000     3.177000000    -0.106000000
