14
-80.96638
C     0.607000000    -1.317000000    -0.161000000
H     1.149000000    -2.253000000    -0.063000000
C    -0.172000000    -0.906000000     0.896000000
H    -0.214000000    -1.488000000     1.814000000
C    -0.667000000     0.381000000     0.905000000
H    -1.151000000     0.741000000     1.826000000
C    -0.376000000     1.286000000    -0.058000000
H    -0.656000000     2.326000000     0.087000000
C     0.262000000     0.871000000    -1.179000000
H     0.303000000     1.514000000    -2.055000000
C     0.714000000    -0.475000000    -1.279000000
C     1.556000000    -1.027000000    -2.488000000
O     1.939000000    -0.197000000    -3.344000000
O     1.601000000    -2.180000000    -2.709000000
