14
-85.88958
C     0.069000000     0.471000000     1.372000000
H     0.351000000     0.878000000     2.339000000
C     0.847000000    -0.571000000     0.896000000
H     1.619000000    -0.951000000     1.559000000
C     0.644000000    -0.999000000    -0.423000000
H     1.217000000    -1.860000000    -0.780000000
C    -0.335000000    -0.360000000    -1.145000000
H    -0.482000000    -0.610000000    -2.193000000
C    -0.984000000     0.765000000    -0.697000000
H    -1.694000000     1.242000000    -1.368000000
C    -0.805000000     1.212000000     0.590000000
C    -1.299000000     2.563000000     1.031000000
O    -1.615000000     2.800000000     2.198000000
O    -1.550000000     3.349000000     0.156000000
