14
-91.56100
C     0.338000000     0.490000000     1.346000000
H     0.620000000     0.766000000     2.359000000
C     0.718000000    -0.723000000     0.783000000
H     1.245000000    -1.471000000     1.370000000
C     0.407000000    -1.043000000    -0.518000000
H     0.766000000    -1.953000000    -0.940000000
C    -0.525000000    -0.242000000    -1.238000000
H    -0.818000000    -0.564000000    -2.234000000
C    -0.930000000     0.965000000    -0.685000000
H    -1.572000000     1.642000000    -1.242000000
C    -0.530000000     1.349000000     0.628000000
C    -0.909000000     2.642000000     1.256000000
O    -0.657000000     2.879000000     2.433000000
O    -1.286000000     3.546000000     0.514000000
