14
-82.07700
C    -0.671000000     0.531000000     1.307000000
H    -0.875000000     0.902000000     2.308000000
C    -0.579000000    -0.846000000     0.931000000
H    -0.988000000    -1.591000000     1.610000000
C    -0.010000000    -1.184000000    -0.294000000
H    -0.048000000    -2.212000000    -0.727000000
C     0.570000000    -0.203000000    -1.101000000
H     1.093000000    -0.451000000    -2.021000000
C     0.490000000     1.088000000    -0.757000000
H     0.972000000     1.745000000    -1.476000000
C    -0.103000000     1.495000000     0.419000000
C    -0.100000000     2.965000000     0.690000000
O    -0.478000000     3.361000000     1.801000000
O     0.338000000     3.771000000    -0.072000000
