14
-87.35144
C    -1.356000000     0.532000000     0.320000000
H    -2.404000000     0.585000000     0.606000000
C    -1.036000000    -0.516000000    -0.595000000
H    -1.761000000    -1.130000000    -1.122000000
C     0.320000000    -0.880000000    -0.808000000
H     0.623000000    -1.789000000    -1.326000000
C     1.299000000    -0.138000000    -0.211000000
H     2.344000000    -0.390000000    -0.372000000
C     0.926000000     0.920000000     0.658000000
H     1.748000000     1.441000000     1.142000000
C    -0.388000000     1.234000000     0.980000000
C    -0.728000000     2.299000000     1.996000000
O    -1.862000000     2.474000000     2.362000000
O     0.209000000     2.814000000     2.607000000
