14
-86.71154
C    -0.141000000     1.181000000     0.922000000
H    -0.064000000     2.068000000     1.546000000
C     0.638000000    -0.010000000     1.150000000
H     1.296000000    -0.071000000     2.012000000
C     0.585000000    -1.120000000     0.294000000
H     1.170000000    -1.985000000     0.536000000
C    -0.184000000    -0.918000000    -0.913000000
H    -0.294000000    -1.782000000    -1.563000000
C    -0.931000000     0.246000000    -1.128000000
H    -1.531000000     0.291000000    -2.034000000
C    -0.902000000     1.329000000    -0.292000000
C    -1.477000000     2.722000000    -0.567000000
O    -1.165000000     3.671000000     0.078000000
O    -2.245000000     2.828000000    -1.546000000
