14
-84.28635
C    -1.018000000     0.520000000     0.992000000
H    -1.771000000     0.759000000     1.738000000
C    -1.165000000    -0.571000000     0.134000000
H    -2.114000000    -1.088000000     0.015000000
C    -0.090000000    -1.045000000    -0.608000000
H    -0.223000000    -1.882000000    -1.340000000
C     1.080000000    -0.298000000    -0.687000000
H     1.861000000    -0.624000000    -1.370000000
C     1.176000000     0.812000000     0.124000000
H     2.166000000     1.252000000     0.213000000
C     0.164000000     1.264000000     0.940000000
C     0.259000000     2.473000000     1.745000000
O    -0.750000000     3.075000000     1.975000000
O     1.346000000     2.982000000     2.072000000
