14
-84.53196
C    -0.642000000     1.062000000    -0.856000000
H    -0.941000000     1.741000000    -1.651000000
C    -0.004000000    -0.087000000    -1.305000000
H     0.094000000    -0.221000000    -2.380000000
C     0.534000000    -1.014000000    -0.433000000
H     1.198000000    -1.739000000    -0.898000000
C     0.430000000    -0.783000000     0.935000000
H     1.004000000    -1.415000000     1.607000000
C    -0.248000000     0.317000000     1.433000000
H    -0.284000000     0.445000000     2.512000000
C    -0.834000000     1.248000000     0.577000000
C    -1.526000000     2.430000000     1.117000000
O    -2.203000000     3.163000000     0.403000000
O    -1.237000000     2.768000000     2.230000000
