14
-86.75890
C    -1.355000000     0.345000000    -0.339000000
H    -2.341000000     0.585000000    -0.731000000
C    -0.752000000    -0.885000000    -0.653000000
H    -1.273000000    -1.554000000    -1.333000000
C     0.512000000    -1.114000000    -0.214000000
H     0.938000000    -2.067000000    -0.452000000
C     1.151000000    -0.168000000     0.591000000
H     2.155000000    -0.350000000     0.966000000
C     0.597000000     1.038000000     0.890000000
H     1.140000000     1.806000000     1.436000000
C    -0.646000000     1.334000000     0.345000000
C    -1.267000000     2.712000000     0.573000000
O    -2.336000000     2.956000000     0.002000000
O    -0.845000000     3.399000000     1.422000000
