14
-92.55023
C    -1.405000000    -0.188000000    -0.092000000
H    -2.465000000    -0.322000000    -0.295000000
C    -0.480000000    -1.022000000    -0.727000000
H    -0.741000000    -1.939000000    -1.249000000
C     0.836000000    -0.714000000    -0.533000000
H     1.578000000    -1.338000000    -1.041000000
C     1.240000000     0.404000000     0.134000000
H     2.296000000     0.641000000     0.230000000
C     0.311000000     1.247000000     0.758000000
H     0.621000000     2.151000000     1.277000000
C    -1.037000000     0.987000000     0.649000000
C    -2.161000000     1.856000000     1.281000000
O    -3.318000000     1.439000000     1.209000000
O    -1.892000000     2.903000000     1.899000000
