14
-85.16226
C    -1.329000000     0.659000000    -0.048000000
H    -2.335000000     1.043000000    -0.199000000
C    -0.742000000    -0.148000000    -1.028000000
H    -1.196000000    -0.342000000    -1.996000000
C     0.497000000    -0.799000000    -0.781000000
H     0.935000000    -1.442000000    -1.511000000
C     1.096000000    -0.702000000     0.440000000
H     2.065000000    -1.169000000     0.598000000
C     0.551000000     0.262000000     1.284000000
H     1.074000000     0.472000000     2.213000000
C    -0.655000000     0.932000000     1.118000000
C    -1.150000000     1.975000000     2.068000000
O    -2.185000000     2.592000000     1.788000000
O    -0.456000000     2.406000000     2.954000000
