14
-83.99021
C    -1.243000000     0.159000000     0.873000000
H    -2.078000000     0.271000000     1.559000000
C    -0.836000000    -1.018000000     0.298000000
H    -1.362000000    -1.961000000     0.421000000
C     0.311000000    -1.093000000    -0.556000000
H     0.753000000    -2.068000000    -0.922000000
C     1.001000000     0.144000000    -0.865000000
H     1.870000000     0.161000000    -1.518000000
C     0.558000000     1.358000000    -0.403000000
H     1.157000000     2.259000000    -0.510000000
C    -0.527000000     1.394000000     0.506000000
C    -0.802000000     2.682000000     1.287000000
O    -1.572000000     2.690000000     2.208000000
O    -0.024000000     3.600000000     1.084000000
