14
-83.26752
C     0.820000000     0.254000000     1.177000000
H     1.481000000     0.316000000     2.037000000
C     0.904000000    -0.876000000     0.410000000
H     1.509000000    -1.742000000     0.669000000
C     0.135000000    -0.985000000    -0.739000000
H     0.198000000    -1.824000000    -1.274000000
C    -0.601000000     0.146000000    -1.111000000
H    -1.150000000     0.010000000    -2.039000000
C    -0.761000000     1.197000000    -0.291000000
H    -1.585000000     1.876000000    -0.492000000
C    -0.051000000     1.323000000     0.915000000
C    -0.183000000     2.539000000     1.794000000
O     0.437000000     2.576000000     2.851000000
O    -0.894000000     3.439000000     1.468000000
