14
-84.45553
C    -1.325000000     0.098000000     0.471000000
H    -2.390000000    -0.008000000     0.664000000
C    -0.756000000    -1.018000000    -0.133000000
H    -1.363000000    -1.872000000    -0.425000000
C     0.595000000    -0.931000000    -0.546000000
H     0.923000000    -1.705000000    -1.200000000
C     1.311000000     0.258000000    -0.281000000
H     2.333000000     0.304000000    -0.649000000
C     0.766000000     1.277000000     0.370000000
H     1.350000000     2.185000000     0.497000000
C    -0.583000000     1.226000000     0.808000000
C    -1.260000000     2.294000000     1.560000000
O    -2.293000000     2.086000000     2.211000000
O    -0.820000000     3.409000000     1.510000000
