14
-81.14080
C     1.325000000    -0.526000000    -0.199000000
H     2.347000000    -0.897000000    -0.181000000
C     0.914000000     0.185000000     0.937000000
H     1.563000000     0.395000000     1.783000000
C    -0.452000000     0.548000000     1.003000000
H    -0.864000000     0.993000000     1.933000000
C    -1.286000000     0.206000000    -0.037000000
H    -2.336000000     0.436000000     0.120000000
C    -0.766000000    -0.257000000    -1.161000000
H    -1.413000000    -0.420000000    -2.018000000
C     0.539000000    -0.790000000    -1.241000000
C     1.104000000    -1.297000000    -2.513000000
O     0.517000000    -1.047000000    -3.542000000
O     2.157000000    -1.895000000    -2.497000000
