14
-87.12506
C     0.711000000    -0.527000000     1.215000000
H     1.136000000    -1.028000000     2.081000000
C     0.022000000    -1.278000000     0.228000000
H     0.093000000    -2.358000000     0.326000000
C    -0.735000000    -0.663000000    -0.755000000
H    -1.217000000    -1.258000000    -1.443000000
C    -0.587000000     0.727000000    -0.996000000
H    -1.033000000     1.255000000    -1.835000000
C     0.216000000     1.461000000    -0.092000000
H     0.374000000     2.530000000    -0.209000000
C     0.851000000     0.851000000     0.995000000
C     1.741000000     1.619000000     1.947000000
O     2.391000000     0.983000000     2.788000000
O     1.740000000     2.789000000     1.899000000
