14
-79.85441
C     0.378000000    -0.342000000     1.435000000
H     0.670000000    -0.716000000     2.413000000
C     0.362000000    -1.225000000     0.357000000
H     0.445000000    -2.304000000     0.458000000
C     0.063000000    -0.799000000    -0.919000000
H     0.132000000    -1.491000000    -1.730000000
C    -0.390000000     0.523000000    -1.094000000
H    -0.578000000     0.777000000    -2.134000000
C    -0.365000000     1.408000000    -0.092000000
H    -0.641000000     2.442000000    -0.280000000
C     0.026000000     0.999000000     1.214000000
C     0.149000000     2.032000000     2.265000000
O     0.217000000     1.780000000     3.423000000
O     0.153000000     3.240000000     2.015000000
