14
-83.26741
C     0.394000000     0.530000000     1.275000000
H     0.521000000     0.896000000     2.290000000
C    -0.500000000    -0.506000000     1.063000000
H    -1.052000000    -0.924000000     1.901000000
C    -0.687000000    -1.004000000    -0.193000000
H    -1.406000000    -1.819000000    -0.379000000
C    -0.038000000    -0.398000000    -1.250000000
H    -0.229000000    -0.761000000    -2.257000000
C     0.668000000     0.813000000    -1.120000000
H     0.969000000     1.355000000    -2.013000000
C     0.964000000     1.248000000     0.173000000
C     1.955000000     2.358000000     0.518000000
O     2.237000000     2.520000000     1.696000000
O     2.571000000     3.012000000    -0.266000000
