14
-77.89140
C    -0.164000000    -0.690000000     1.283000000
H    -0.386000000    -1.297000000     2.157000000
C    -0.651000000    -1.154000000     0.073000000
H    -1.075000000    -2.146000000    -0.063000000
C    -0.493000000    -0.403000000    -1.106000000
H    -0.968000000    -0.747000000    -2.007000000
C     0.181000000     0.793000000    -1.011000000
H     0.489000000     1.435000000    -1.832000000
C     0.751000000     1.219000000     0.234000000
H     1.437000000     2.061000000     0.190000000
C     0.567000000     0.489000000     1.402000000
C     1.103000000     0.959000000     2.748000000
O     1.198000000     0.261000000     3.760000000
O     1.609000000     2.005000000     2.834000000
