14
-85.48933
C     1.472000000     0.165000000    -0.549000000
H     2.519000000     0.330000000    -0.789000000
C     1.024000000     0.331000000     0.790000000
H     1.685000000     0.804000000     1.511000000
C    -0.344000000     0.200000000     1.111000000
H    -0.655000000     0.267000000     2.132000000
C    -1.277000000    -0.203000000     0.234000000
H    -2.278000000    -0.355000000     0.629000000
C    -0.819000000    -0.532000000    -1.057000000
H    -1.529000000    -0.832000000    -1.823000000
C     0.545000000    -0.234000000    -1.478000000
C     0.902000000    -0.555000000    -2.976000000
O     0.087000000    -1.041000000    -3.736000000
O     2.045000000    -0.307000000    -3.362000000
