14
-82.74083
C     0.216000000     0.570000000     1.364000000
H     0.305000000     0.739000000     2.434000000
C    -0.565000000    -0.585000000     1.025000000
H    -1.027000000    -1.201000000     1.793000000
C    -0.687000000    -0.992000000    -0.288000000
H    -1.267000000    -1.890000000    -0.487000000
C    -0.114000000    -0.250000000    -1.251000000
H    -0.254000000    -0.416000000    -2.316000000
C     0.719000000     0.842000000    -0.934000000
H     1.146000000     1.491000000    -1.694000000
C     0.960000000     1.281000000     0.398000000
C     1.911000000     2.365000000     0.748000000
O     2.182000000     2.474000000     1.937000000
O     2.478000000     3.078000000    -0.024000000
