14
-88.37184
C     0.721000000     0.202000000     1.257000000
H     1.197000000     0.289000000     2.230000000
C    -0.288000000    -0.727000000     1.021000000
H    -0.598000000    -1.264000000     1.914000000
C    -0.845000000    -0.822000000    -0.232000000
H    -1.545000000    -1.630000000    -0.468000000
C    -0.365000000    -0.148000000    -1.275000000
H    -0.743000000    -0.358000000    -2.272000000
C     0.649000000     0.818000000    -1.030000000
H     1.069000000     1.369000000    -1.867000000
C     1.196000000     1.006000000     0.203000000
C     2.143000000     2.196000000     0.498000000
O     2.571000000     2.387000000     1.633000000
O     2.341000000     2.982000000    -0.402000000
