14
-85.72129
C     1.295000000    -0.429000000    -0.554000000
H     2.290000000    -0.406000000    -0.992000000
C     1.064000000     0.238000000     0.708000000
H     1.907000000     0.456000000     1.358000000
C    -0.237000000     0.465000000     1.146000000
H    -0.466000000     0.757000000     2.208000000
C    -1.272000000     0.085000000     0.278000000
H    -2.271000000     0.230000000     0.682000000
C    -1.049000000    -0.451000000    -1.000000000
H    -1.834000000    -0.609000000    -1.735000000
C     0.253000000    -0.736000000    -1.415000000
C     0.502000000    -1.050000000    -2.837000000
O    -0.434000000    -1.328000000    -3.562000000
O     1.637000000    -1.033000000    -3.252000000
