14
-85.67524
C    -1.431000000     0.024000000     0.194000000
H    -2.518000000     0.009000000     0.230000000
C    -0.830000000    -0.664000000    -0.825000000
H    -1.513000000    -1.109000000    -1.546000000
C     0.627000000    -0.623000000    -0.909000000
H     1.167000000    -1.136000000    -1.705000000
C     1.329000000     0.184000000    -0.021000000
H     2.415000000     0.233000000    -0.055000000
C     0.700000000     0.833000000     1.054000000
H     1.236000000     1.377000000     1.828000000
C    -0.702000000     0.746000000     1.211000000
C    -1.514000000     1.433000000     2.284000000
O    -2.539000000     1.003000000     2.691000000
O    -1.148000000     2.584000000     2.644000000
