14
-83.78275
C    -1.064000000     0.785000000     0.579000000
H    -1.913000000     1.391000000     0.884000000
C    -1.224000000    -0.051000000    -0.479000000
H    -2.239000000    -0.018000000    -0.864000000
C    -0.130000000    -0.769000000    -0.985000000
H    -0.163000000    -1.491000000    -1.842000000
C     1.105000000    -0.648000000    -0.305000000
H     1.924000000    -1.257000000    -0.679000000
C     1.261000000     0.205000000     0.783000000
H     2.177000000     0.157000000     1.366000000
C     0.178000000     0.929000000     1.238000000
C     0.331000000     1.789000000     2.473000000
O    -0.691000000     2.199000000     3.016000000
O     1.345000000     1.837000000     3.112000000
