14
-92.19552
C    -1.022000000     0.756000000     0.797000000
H    -1.731000000     1.326000000     1.393000000
C    -1.324000000    -0.314000000     0.004000000
H    -2.333000000    -0.699000000    -0.123000000
C    -0.307000000    -0.934000000    -0.758000000
H    -0.525000000    -1.783000000    -1.359000000
C     1.005000000    -0.425000000    -0.741000000
H     1.835000000    -0.858000000    -1.293000000
C     1.301000000     0.657000000     0.063000000
H     2.350000000     0.927000000     0.151000000
C     0.286000000     1.179000000     0.897000000
C     0.532000000     2.268000000     1.970000000
O    -0.380000000     3.071000000     2.128000000
O     1.653000000     2.375000000     2.560000000
