14
-86.82621
C     1.328000000    -0.167000000    -0.757000000
H     2.306000000    -0.262000000    -1.221000000
C     1.186000000     0.049000000     0.608000000
H     2.091000000     0.135000000     1.205000000
C    -0.090000000     0.172000000     1.191000000
H    -0.262000000     0.257000000     2.236000000
C    -1.204000000     0.003000000     0.405000000
H    -2.196000000     0.074000000     0.844000000
C    -1.083000000    -0.007000000    -0.997000000
H    -2.034000000    -0.029000000    -1.523000000
C     0.164000000    -0.016000000    -1.561000000
C     0.278000000    -0.217000000    -2.996000000
O    -0.772000000    -0.257000000    -3.651000000
O     1.360000000    -0.347000000    -3.521000000
