14
-85.37573
C    -0.946000000     0.566000000     1.019000000
H    -1.663000000     1.039000000     1.686000000
C    -1.266000000    -0.135000000    -0.098000000
H    -2.309000000    -0.297000000    -0.358000000
C    -0.347000000    -0.536000000    -1.010000000
H    -0.715000000    -1.029000000    -1.934000000
C     0.955000000    -0.481000000    -0.692000000
H     1.633000000    -0.888000000    -1.438000000
C     1.394000000     0.240000000     0.424000000
H     2.455000000     0.229000000     0.659000000
C     0.430000000     0.790000000     1.254000000
C     0.829000000     1.598000000     2.517000000
O     0.090000000     1.675000000     3.494000000
O     1.914000000     2.137000000     2.547000000
