14
-82.98824
C    -0.512000000    -0.685000000     1.186000000
H    -0.810000000    -1.194000000     2.099000000
C    -0.181000000    -1.373000000     0.035000000
H    -0.337000000    -2.449000000     0.014000000
C     0.252000000    -0.589000000    -1.061000000
H     0.492000000    -1.136000000    -1.988000000
C     0.381000000     0.790000000    -0.974000000
H     0.743000000     1.392000000    -1.803000000
C     0.116000000     1.392000000     0.215000000
H     0.217000000     2.471000000     0.309000000
C    -0.381000000     0.714000000     1.307000000
C    -0.731000000     1.463000000     2.626000000
O    -1.274000000     0.935000000     3.566000000
O    -0.310000000     2.572000000     2.856000000
