14
-85.93947
C    -0.982000000     0.331000000     1.015000000
H    -1.794000000     0.459000000     1.727000000
C    -1.144000000    -0.486000000    -0.105000000
H    -2.061000000    -1.053000000    -0.242000000
C    -0.163000000    -0.640000000    -1.044000000
H    -0.257000000    -1.295000000    -1.892000000
C     1.064000000    -0.056000000    -0.810000000
H     1.904000000    -0.304000000    -1.455000000
C     1.337000000     0.679000000     0.383000000
H     2.267000000     1.189000000     0.620000000
C     0.228000000     0.932000000     1.237000000
C     0.373000000     1.681000000     2.471000000
O    -0.642000000     2.013000000     3.023000000
O     1.482000000     2.095000000     2.816000000
