14
-79.22310
C    -0.529000000    -0.589000000     1.347000000
H    -0.827000000    -1.148000000     2.230000000
C    -0.168000000    -1.340000000     0.208000000
H    -0.202000000    -2.426000000     0.163000000
C     0.244000000    -0.682000000    -0.962000000
H     0.468000000    -1.164000000    -1.890000000
C     0.269000000     0.750000000    -1.060000000
H     0.564000000     1.224000000    -1.993000000
C     0.016000000     1.456000000     0.147000000
H     0.156000000     2.534000000     0.107000000
C    -0.364000000     0.868000000     1.318000000
C    -0.542000000     1.732000000     2.467000000
O    -0.427000000     1.226000000     3.559000000
O    -0.641000000     2.927000000     2.402000000
