14
-91.30626
C    -0.955000000    -0.274000000     1.163000000
H    -1.616000000    -0.447000000     2.008000000
C    -0.571000000    -1.174000000     0.185000000
H    -1.069000000    -2.136000000     0.274000000
C     0.293000000    -0.842000000    -0.808000000
H     0.547000000    -1.675000000    -1.557000000
C     0.860000000     0.426000000    -0.947000000
H     1.531000000     0.731000000    -1.746000000
C     0.465000000     1.368000000    -0.023000000
H     0.786000000     2.403000000    -0.112000000
C    -0.438000000     1.021000000     1.055000000
C    -0.806000000     2.092000000     2.096000000
O    -1.418000000     1.852000000     3.142000000
O    -0.482000000     3.236000000     1.770000000
