14
-83.48928
C    -0.844000000    -0.253000000     1.275000000
H    -1.349000000    -0.456000000     2.216000000
C    -0.786000000    -1.073000000     0.138000000
H    -1.254000000    -2.054000000     0.130000000
C    -0.035000000    -0.738000000    -0.989000000
H     0.112000000    -1.277000000    -1.863000000
C     0.790000000     0.398000000    -0.956000000
H     1.454000000     0.642000000    -1.781000000
C     0.743000000     1.237000000     0.153000000
H     1.558000000     1.952000000     0.228000000
C    -0.033000000     0.925000000     1.204000000
C    -0.087000000     1.905000000     2.416000000
O    -0.641000000     1.502000000     3.422000000
O     0.656000000     2.867000000     2.471000000
