14
-75.52475
C     1.271000000    -0.602000000     0.230000000
H     2.317000000    -0.844000000     0.397000000
C     0.991000000     0.743000000     0.319000000
H     1.821000000     1.444000000     0.325000000
C    -0.266000000     1.202000000     0.114000000
H    -0.447000000     2.154000000     0.239000000
C    -1.232000000     0.255000000    -0.153000000
H    -2.255000000     0.622000000    -0.180000000
C    -0.942000000    -1.037000000    -0.410000000
H    -1.750000000    -1.689000000    -0.734000000
C     0.298000000    -1.543000000    -0.138000000
C     0.631000000    -2.999000000    -0.392000000
O    -0.129000000    -3.929000000    -0.702000000
O     1.800000000    -3.282000000    -0.292000000
