14
-82.53137
C    -0.615000000     0.668000000     1.235000000
H    -1.038000000     1.047000000     2.163000000
C    -0.196000000    -0.670000000     1.122000000
H    -0.323000000    -1.360000000     1.952000000
C     0.206000000    -1.215000000    -0.074000000
H     0.502000000    -2.235000000    -0.192000000
C     0.467000000    -0.337000000    -1.163000000
H     0.916000000    -0.706000000    -2.081000000
C     0.163000000     1.036000000    -1.084000000
H     0.518000000     1.700000000    -1.869000000
C    -0.406000000     1.524000000     0.121000000
C    -0.689000000     2.963000000     0.275000000
O    -1.003000000     3.482000000     1.330000000
O    -0.633000000     3.731000000    -0.652000000
