14
-85.04505
C     0.687000000     1.296000000     0.207000000
H     1.263000000     2.189000000     0.435000000
C     1.244000000     0.168000000    -0.354000000
H     2.322000000     0.126000000    -0.485000000
C     0.484000000    -0.978000000    -0.542000000
H     0.977000000    -1.886000000    -0.902000000
C    -0.901000000    -0.988000000    -0.253000000
H    -1.507000000    -1.890000000    -0.278000000
C    -1.410000000     0.190000000     0.358000000
H    -2.457000000     0.183000000     0.647000000
C    -0.617000000     1.290000000     0.604000000
C    -1.226000000     2.433000000     1.328000000
O    -0.540000000     3.347000000     1.650000000
O    -2.408000000     2.436000000     1.753000000
