14
-82.60504
C    -0.433000000     1.417000000    -0.075000000
H    -0.715000000     2.466000000    -0.113000000
C     0.269000000     0.842000000     0.971000000
H     0.537000000     1.480000000     1.809000000
C     0.599000000    -0.494000000     0.953000000
H     1.199000000    -1.008000000     1.726000000
C     0.211000000    -1.260000000    -0.135000000
H     0.515000000    -2.299000000    -0.236000000
C    -0.360000000    -0.692000000    -1.241000000
H    -0.627000000    -1.404000000    -2.018000000
C    -0.907000000     0.632000000    -1.160000000
C    -1.511000000     1.286000000    -2.381000000
O    -2.068000000     2.424000000    -2.289000000
O    -1.121000000     0.924000000    -3.476000000
