14
-81.31231
C    -0.308000000     1.381000000     0.481000000
H    -0.274000000     2.378000000     0.913000000
C    -0.086000000     0.291000000     1.279000000
H    -0.010000000     0.489000000     2.345000000
C     0.151000000    -1.019000000     0.734000000
H     0.452000000    -1.897000000     1.334000000
C     0.138000000    -1.130000000    -0.638000000
H     0.459000000    -2.043000000    -1.132000000
C    -0.195000000     0.022000000    -1.438000000
H    -0.256000000    -0.021000000    -2.523000000
C    -0.356000000     1.252000000    -0.930000000
C    -0.540000000     2.420000000    -1.841000000
O    -0.566000000     3.535000000    -1.375000000
O    -0.669000000     2.305000000    -3.013000000
