14
-87.71964
C    -0.072000000     1.220000000     0.815000000
H    -0.179000000     2.109000000     1.431000000
C     0.825000000     0.193000000     1.078000000
H     1.556000000     0.208000000     1.882000000
C     0.769000000    -0.942000000     0.282000000
H     1.445000000    -1.789000000     0.411000000
C    -0.082000000    -0.937000000    -0.830000000
H    -0.167000000    -1.889000000    -1.347000000
C    -0.997000000     0.071000000    -1.089000000
H    -1.752000000    -0.001000000    -1.868000000
C    -0.884000000     1.219000000    -0.348000000
C    -1.731000000     2.418000000    -0.773000000
O    -1.461000000     3.545000000    -0.361000000
O    -2.623000000     2.300000000    -1.575000000
