14
-83.55572
C    -0.128000000     1.371000000     0.494000000
H    -0.332000000     2.359000000     0.899000000
C     0.793000000     0.504000000     0.978000000
H     1.420000000     0.754000000     1.830000000
C     0.812000000    -0.795000000     0.455000000
H     1.489000000    -1.490000000     0.909000000
C    -0.084000000    -1.215000000    -0.570000000
H    -0.031000000    -2.176000000    -1.076000000
C    -0.933000000    -0.244000000    -1.179000000
H    -1.616000000    -0.528000000    -1.976000000
C    -0.969000000     1.034000000    -0.611000000
C    -1.879000000     1.980000000    -1.288000000
O    -1.696000000     3.172000000    -1.123000000
O    -2.974000000     1.653000000    -1.762000000
