14
-74.51534
C    -0.532000000     1.292000000     0.366000000
H    -0.804000000     2.240000000     0.825000000
C     0.264000000     0.576000000     1.163000000
H     0.690000000     1.008000000     2.066000000
C     0.735000000    -0.652000000     0.698000000
H     1.415000000    -1.223000000     1.265000000
C     0.417000000    -1.084000000    -0.558000000
H     0.789000000    -2.023000000    -0.961000000
C    -0.362000000    -0.307000000    -1.422000000
H    -0.703000000    -0.689000000    -2.381000000
C    -0.953000000     0.844000000    -0.883000000
C    -1.927000000     1.683000000    -1.702000000
O    -2.174000000     2.803000000    -1.337000000
O    -2.324000000     1.373000000    -2.758000000
