14
-79.29564
C     0.178000000     0.220000000     1.384000000
H     0.213000000     0.325000000     2.465000000
C     0.309000000    -0.990000000     0.796000000
H     0.763000000    -1.814000000     1.340000000
C     0.076000000    -1.092000000    -0.574000000
H     0.133000000    -1.997000000    -1.083000000
C    -0.375000000     0.009000000    -1.322000000
H    -0.624000000    -0.237000000    -2.352000000
C    -0.597000000     1.215000000    -0.659000000
H    -0.889000000     2.111000000    -1.202000000
C    -0.315000000     1.336000000     0.722000000
C    -0.516000000     2.633000000     1.481000000
O    -0.495000000     2.653000000     2.667000000
O    -0.632000000     3.643000000     0.887000000
