14
-84.74347
C     0.148000000     0.583000000     1.363000000
H     0.367000000     0.904000000     2.378000000
C     0.441000000    -0.757000000     1.028000000
H     0.940000000    -1.380000000     1.765000000
C     0.115000000    -1.198000000    -0.308000000
H     0.435000000    -2.204000000    -0.532000000
C    -0.450000000    -0.309000000    -1.196000000
H    -0.711000000    -0.726000000    -2.164000000
C    -0.536000000     0.984000000    -0.858000000
H    -0.928000000     1.740000000    -1.533000000
C    -0.252000000     1.459000000     0.401000000
C    -0.392000000     2.951000000     0.788000000
O     0.069000000     3.377000000     1.817000000
O    -1.050000000     3.620000000     0.049000000
