14
-91.54055
C    -0.025000000    -0.084000000     1.510000000
H     0.038000000    -0.106000000     2.594000000
C     0.068000000    -1.227000000     0.674000000
H     0.263000000    -2.204000000     1.110000000
C     0.040000000    -0.968000000    -0.760000000
H     0.115000000    -1.862000000    -1.398000000
C    -0.113000000     0.285000000    -1.314000000
H    -0.085000000     0.374000000    -2.397000000
C    -0.041000000     1.405000000    -0.440000000
H     0.010000000     2.423000000    -0.817000000
C    -0.043000000     1.209000000     0.943000000
C     0.047000000     2.406000000     1.849000000
O     0.068000000     2.315000000     3.085000000
O     0.149000000     3.508000000     1.300000000
