14
-90.61502
C     1.134000000     0.630000000     0.766000000
H     1.933000000     0.905000000     1.450000000
C     0.997000000    -0.738000000     0.543000000
H     1.653000000    -1.484000000     0.985000000
C    -0.076000000    -1.224000000    -0.202000000
H    -0.171000000    -2.266000000    -0.433000000
C    -0.905000000    -0.311000000    -0.831000000
H    -1.735000000    -0.605000000    -1.469000000
C    -0.785000000     1.020000000    -0.570000000
H    -1.516000000     1.669000000    -1.045000000
C     0.286000000     1.537000000     0.226000000
C     0.250000000     3.019000000     0.658000000
O     1.111000000     3.373000000     1.446000000
O    -0.524000000     3.823000000     0.125000000
