14
-73.62235
C     0.034000000     0.941000000     1.213000000
H     0.203000000     1.480000000     2.142000000
C     0.284000000    -0.422000000     1.270000000
H     0.438000000    -0.931000000     2.218000000
C     0.243000000    -1.167000000     0.066000000
H     0.507000000    -2.181000000     0.170000000
C     0.035000000    -0.607000000    -1.148000000
H    -0.081000000    -1.211000000    -2.044000000
C    -0.232000000     0.730000000    -1.241000000
H    -0.491000000     1.199000000    -2.187000000
C    -0.198000000     1.547000000    -0.063000000
C    -0.246000000     3.035000000    -0.179000000
O    -0.386000000     3.633000000     0.808000000
O    -0.240000000     3.599000000    -1.218000000
