14
-88.63245
C     0.890000000    -1.087000000     0.282000000
H     1.696000000    -1.794000000     0.464000000
C     1.238000000     0.265000000     0.254000000
H     2.231000000     0.676000000     0.416000000
C     0.248000000     1.198000000    -0.080000000
H     0.533000000     2.243000000    -0.116000000
C    -1.099000000     0.801000000    -0.274000000
H    -1.965000000     1.414000000    -0.509000000
C    -1.375000000    -0.598000000    -0.295000000
H    -2.369000000    -0.867000000    -0.645000000
C    -0.388000000    -1.545000000    -0.012000000
C    -0.634000000    -3.016000000     0.142000000
O    -1.385000000    -3.525000000    -0.655000000
O    -0.060000000    -3.650000000     0.997000000
