14
-73.43561
C     1.078000000     0.237000000     1.050000000
H     1.844000000     0.397000000     1.804000000
C     0.589000000    -1.020000000     0.618000000
H     1.027000000    -1.924000000     1.032000000
C    -0.377000000    -1.154000000    -0.329000000
H    -0.673000000    -2.149000000    -0.658000000
C    -0.789000000     0.033000000    -1.039000000
H    -1.645000000     0.004000000    -1.709000000
C    -0.380000000     1.281000000    -0.580000000
H    -0.793000000     2.191000000    -1.007000000
C     0.485000000     1.422000000     0.549000000
C     0.906000000     2.795000000     0.953000000
O     1.588000000     2.878000000     1.889000000
O     0.795000000     3.802000000     0.273000000
