14
-88.28833
C     0.960000000     0.257000000     1.126000000
H     1.662000000     0.360000000     1.949000000
C     0.913000000    -0.911000000     0.373000000
H     1.502000000    -1.753000000     0.726000000
C     0.091000000    -0.961000000    -0.702000000
H    -0.015000000    -1.889000000    -1.303000000
C    -0.871000000     0.047000000    -0.994000000
H    -1.528000000    -0.096000000    -1.848000000
C    -0.823000000     1.208000000    -0.247000000
H    -1.503000000     2.018000000    -0.498000000
C     0.050000000     1.316000000     0.830000000
C    -0.036000000     2.520000000     1.794000000
O     0.832000000     2.759000000     2.599000000
O    -0.922000000     3.339000000     1.615000000
