14
-85.31422
C    -0.901000000     0.388000000     1.072000000
H    -1.666000000     0.561000000     1.825000000
C     0.187000000    -0.432000000     1.154000000
H     0.422000000    -0.960000000     2.074000000
C     1.076000000    -0.647000000     0.104000000
H     1.931000000    -1.333000000     0.174000000
C     0.814000000     0.022000000    -1.113000000
H     1.569000000    -0.042000000    -1.893000000
C    -0.326000000     0.861000000    -1.171000000
H    -0.530000000     1.145000000    -2.200000000
C    -1.223000000     0.993000000    -0.116000000
C    -2.537000000     1.760000000    -0.242000000
O    -3.297000000     1.825000000     0.733000000
O    -2.977000000     2.114000000    -1.317000000
