14
-87.54285
C    -0.348000000     0.125000000     1.448000000
H    -0.572000000     0.234000000     2.506000000
C     0.417000000    -0.871000000     0.868000000
H     0.815000000    -1.659000000     1.503000000
C     0.630000000    -0.946000000    -0.506000000
H     1.236000000    -1.780000000    -0.833000000
C     0.183000000     0.065000000    -1.308000000
H     0.429000000     0.166000000    -2.362000000
C    -0.593000000     1.113000000    -0.734000000
H    -0.779000000     1.981000000    -1.362000000
C    -0.892000000     1.131000000     0.652000000
C    -1.761000000     2.257000000     1.209000000
O    -2.203000000     2.222000000     2.318000000
O    -1.953000000     3.201000000     0.493000000
