14
-82.74106
C    -0.952000000     0.281000000     1.085000000
H    -1.527000000     0.350000000     2.005000000
C     0.335000000    -0.188000000     1.267000000
H     0.647000000    -0.492000000     2.262000000
C     1.194000000    -0.330000000     0.150000000
H     2.178000000    -0.824000000     0.184000000
C     0.713000000    -0.020000000    -1.098000000
H     1.320000000     0.028000000    -1.998000000
C    -0.635000000     0.236000000    -1.248000000
H    -1.093000000     0.358000000    -2.227000000
C    -1.477000000     0.395000000    -0.198000000
C    -2.872000000     0.889000000    -0.522000000
O    -3.718000000     0.844000000     0.318000000
O    -3.138000000     1.462000000    -1.583000000
