14
-89.84746
C    -1.400000000     0.488000000     0.205000000
H    -2.352000000     0.988000000     0.369000000
C    -0.213000000     1.015000000     0.804000000
H    -0.218000000     1.893000000     1.445000000
C     0.982000000     0.491000000     0.510000000
H     1.930000000     0.928000000     0.819000000
C     1.070000000    -0.625000000    -0.302000000
H     2.052000000    -1.031000000    -0.530000000
C    -0.088000000    -1.182000000    -0.802000000
H     0.046000000    -2.045000000    -1.448000000
C    -1.348000000    -0.669000000    -0.545000000
C    -2.545000000    -1.329000000    -1.273000000
O    -3.691000000    -0.861000000    -1.108000000
O    -2.329000000    -2.228000000    -2.033000000
