14
-86.76020
C     0.601000000    -0.817000000     1.106000000
H     0.843000000    -1.307000000     2.046000000
C     0.348000000     0.533000000     1.065000000
H     0.613000000     1.136000000     1.929000000
C    -0.322000000     1.182000000     0.020000000
H    -0.537000000     2.195000000     0.016000000
C    -0.580000000     0.482000000    -1.138000000
H    -1.080000000     1.044000000    -1.923000000
C    -0.171000000    -0.885000000    -1.243000000
H    -0.212000000    -1.422000000    -2.187000000
C     0.342000000    -1.553000000    -0.048000000
C     0.838000000    -2.949000000    -0.135000000
O     0.860000000    -3.598000000    -1.180000000
O     1.217000000    -3.488000000     0.932000000
