14
-85.51323
C    -1.376000000     0.121000000    -0.569000000
H    -2.354000000     0.316000000    -1.001000000
C    -0.996000000     0.656000000     0.659000000
H    -1.661000000     1.095000000     1.399000000
C     0.345000000     0.579000000     1.047000000
H     0.755000000     0.913000000     1.963000000
C     1.289000000    -0.115000000     0.217000000
H     2.334000000    -0.316000000     0.437000000
C     0.861000000    -0.654000000    -0.985000000
H     1.664000000    -1.154000000    -1.520000000
C    -0.457000000    -0.610000000    -1.369000000
C    -0.883000000    -1.274000000    -2.705000000
O    -1.988000000    -1.751000000    -2.854000000
O    -0.026000000    -1.453000000    -3.529000000
