14
-76.38242
C    -1.173000000    -0.730000000     0.266000000
H    -1.884000000    -1.493000000     0.572000000
C    -0.386000000    -0.163000000     1.197000000
H    -0.611000000    -0.274000000     2.255000000
C     0.663000000     0.546000000     0.814000000
H     1.290000000     1.024000000     1.610000000
C     0.844000000     0.850000000    -0.516000000
H     1.659000000     1.536000000    -0.730000000
C     0.144000000     0.182000000    -1.500000000
H     0.426000000     0.309000000    -2.542000000
C    -0.907000000    -0.599000000    -1.074000000
C    -1.635000000    -1.393000000    -2.099000000
O    -2.354000000    -2.308000000    -1.802000000
O    -1.318000000    -1.309000000    -3.304000000
