14
-87.98168
C    -1.229000000    -0.545000000     0.464000000
H    -1.992000000    -1.096000000     1.010000000
C    -0.191000000    -0.041000000     1.256000000
H    -0.291000000    -0.103000000     2.337000000
C     0.883000000     0.551000000     0.676000000
H     1.749000000     0.946000000     1.182000000
C     0.957000000     0.552000000    -0.705000000
H     1.862000000     0.952000000    -1.155000000
C    -0.062000000     0.061000000    -1.509000000
H     0.096000000    -0.044000000    -2.579000000
C    -1.198000000    -0.454000000    -0.922000000
C    -2.283000000    -1.161000000    -1.747000000
O    -3.214000000    -1.771000000    -1.224000000
O    -2.304000000    -0.960000000    -2.934000000
