14
-87.75820
C    -1.150000000    -0.888000000     0.053000000
H    -2.044000000    -1.501000000     0.137000000
C    -0.519000000    -0.338000000     1.120000000
H    -1.006000000    -0.456000000     2.085000000
C     0.665000000     0.286000000     0.969000000
H     1.041000000     0.844000000     1.817000000
C     1.225000000     0.466000000    -0.256000000
H     2.131000000     1.036000000    -0.444000000
C     0.565000000     0.073000000    -1.385000000
H     0.964000000     0.293000000    -2.372000000
C    -0.651000000    -0.579000000    -1.239000000
C    -1.461000000    -1.013000000    -2.436000000
O    -2.651000000    -1.387000000    -2.282000000
O    -0.948000000    -1.018000000    -3.555000000
