14
-88.03951
C    -0.984000000    -0.901000000     0.651000000
H    -1.636000000    -1.503000000     1.278000000
C     0.049000000    -0.268000000     1.268000000
H     0.189000000    -0.416000000     2.335000000
C     0.871000000     0.619000000     0.570000000
H     1.689000000     1.126000000     1.094000000
C     0.716000000     0.759000000    -0.805000000
H     1.445000000     1.394000000    -1.302000000
C    -0.329000000     0.120000000    -1.450000000
H    -0.366000000     0.329000000    -2.516000000
C    -1.162000000    -0.746000000    -0.740000000
C    -2.260000000    -1.411000000    -1.405000000
O    -2.784000000    -2.402000000    -0.896000000
O    -2.669000000    -1.074000000    -2.568000000
