14
-89.13151
C    -0.722000000    -1.285000000     0.175000000
H    -1.021000000    -2.328000000     0.237000000
C    -0.101000000    -0.584000000     1.188000000
H    -0.053000000    -0.986000000     2.197000000
C     0.504000000     0.682000000     0.949000000
H     0.999000000     1.201000000     1.816000000
C     0.487000000     1.176000000    -0.340000000
H     1.108000000     2.025000000    -0.612000000
C    -0.186000000     0.481000000    -1.377000000
H    -0.147000000     0.873000000    -2.390000000
C    -0.739000000    -0.777000000    -1.141000000
C    -1.341000000    -1.527000000    -2.349000000
O    -1.872000000    -2.593000000    -2.245000000
O    -1.251000000    -0.965000000    -3.414000000
