14
-92.76891
C    -0.279000000    -1.401000000    -0.057000000
H    -0.499000000    -2.459000000     0.055000000
C     0.455000000    -0.699000000     0.928000000
H     0.992000000    -1.305000000     1.654000000
C     0.679000000     0.638000000     0.854000000
H     1.178000000     1.139000000     1.677000000
C     0.047000000     1.325000000    -0.215000000
H     0.231000000     2.391000000    -0.321000000
C    -0.710000000     0.649000000    -1.163000000
H    -1.221000000     1.241000000    -1.918000000
C    -0.878000000    -0.739000000    -1.145000000
C    -1.684000000    -1.445000000    -2.175000000
O    -1.608000000    -2.668000000    -2.238000000
O    -2.317000000    -0.747000000    -2.955000000
