14
-90.04984
C    -0.673000000    -1.185000000    -0.627000000
H    -1.188000000    -2.070000000    -0.992000000
C     0.212000000    -1.184000000     0.434000000
H     0.418000000    -2.131000000     0.927000000
C     0.775000000    -0.011000000     0.980000000
H     1.479000000     0.022000000     1.873000000
C     0.543000000     1.155000000     0.296000000
H     0.958000000     2.075000000     0.700000000
C    -0.403000000     1.218000000    -0.799000000
H    -0.612000000     2.190000000    -1.238000000
C    -0.963000000     0.068000000    -1.244000000
C    -1.907000000     0.166000000    -2.449000000
O    -2.479000000    -0.862000000    -2.733000000
O    -2.259000000     1.284000000    -2.863000000
