14
-88.25173
C    -1.420000000    -0.333000000    -0.399000000
H    -2.412000000    -0.673000000    -0.685000000
C    -0.651000000    -1.038000000     0.570000000
H    -1.078000000    -1.906000000     1.066000000
C     0.592000000    -0.558000000     0.918000000
H     1.062000000    -0.991000000     1.871000000
C     1.188000000     0.538000000     0.280000000
H     2.201000000     0.837000000     0.538000000
C     0.502000000     1.192000000    -0.686000000
H     1.018000000     1.917000000    -1.311000000
C    -0.796000000     0.725000000    -1.086000000
C    -1.619000000     1.339000000    -2.246000000
O    -2.632000000     0.791000000    -2.571000000
O    -1.218000000     2.344000000    -2.835000000
