14
-82.12214
C    -1.383000000    -0.343000000    -0.461000000
H    -2.394000000    -0.669000000    -0.692000000
C    -0.574000000    -1.031000000     0.494000000
H    -1.001000000    -1.971000000     0.834000000
C     0.736000000    -0.623000000     0.775000000
H     1.381000000    -1.112000000     1.496000000
C     1.161000000     0.611000000     0.266000000
H     2.190000000     0.828000000     0.540000000
C     0.352000000     1.253000000    -0.697000000
H     0.789000000     2.152000000    -1.124000000
C    -0.925000000     0.843000000    -0.982000000
C    -1.722000000     1.553000000    -1.932000000
O    -2.817000000     1.108000000    -2.400000000
O    -1.254000000     2.606000000    -2.264000000
