14
-82.57039
C    -1.168000000    -0.882000000     0.103000000
H    -2.023000000    -1.528000000     0.288000000
C     0.061000000    -1.238000000     0.667000000
H     0.123000000    -2.071000000     1.363000000
C     1.022000000    -0.209000000     0.565000000
H     1.880000000    -0.336000000     1.147000000
C     0.956000000     0.791000000    -0.337000000
H     1.773000000     1.505000000    -0.404000000
C    -0.246000000     1.029000000    -0.981000000
H    -0.229000000     1.857000000    -1.685000000
C    -1.349000000     0.210000000    -0.741000000
C    -2.613000000     0.533000000    -1.493000000
O    -3.340000000    -0.387000000    -1.816000000
O    -2.776000000     1.643000000    -1.906000000
