14
-89.35981
C    -1.139000000    -0.704000000    -0.560000000
H    -2.049000000    -1.215000000    -0.862000000
C    -0.150000000    -1.329000000     0.191000000
H    -0.267000000    -2.398000000     0.353000000
C     0.882000000    -0.501000000     0.687000000
H     1.666000000    -0.870000000     1.305000000
C     0.932000000     0.892000000     0.407000000
H     1.717000000     1.527000000     0.809000000
C    -0.032000000     1.502000000    -0.396000000
H     0.111000000     2.558000000    -0.609000000
C    -1.020000000     0.647000000    -0.940000000
C    -2.067000000     1.244000000    -1.875000000
O    -2.921000000     0.577000000    -2.441000000
O    -2.125000000     2.461000000    -1.919000000
