14
-90.23408
C    -0.692000000    -1.189000000    -0.552000000
H    -1.141000000    -2.150000000    -0.790000000
C    -0.128000000    -1.045000000     0.727000000
H    -0.112000000    -1.818000000     1.491000000
C     0.558000000     0.151000000     1.089000000
H     1.197000000     0.145000000     1.907000000
C     0.559000000     1.205000000     0.202000000
H     1.070000000     2.102000000     0.543000000
C    -0.060000000     1.060000000    -1.030000000
H    -0.047000000     1.918000000    -1.697000000
C    -0.743000000    -0.099000000    -1.382000000
C    -1.407000000    -0.134000000    -2.761000000
O    -1.991000000    -1.123000000    -3.187000000
O    -1.364000000     0.889000000    -3.468000000
