14
-83.82283
C    -1.339000000    -0.581000000     0.022000000
H    -2.356000000    -0.921000000     0.203000000
C    -0.369000000    -0.762000000     0.963000000
H    -0.687000000    -1.282000000     1.863000000
C     0.872000000    -0.270000000     0.761000000
H     1.678000000    -0.475000000     1.454000000
C     1.066000000     0.666000000    -0.199000000
H     2.006000000     1.211000000    -0.221000000
C     0.124000000     0.917000000    -1.143000000
H     0.215000000     1.744000000    -1.842000000
C    -1.099000000     0.281000000    -1.077000000
C    -2.170000000     0.630000000    -2.055000000
O    -3.340000000     0.466000000    -1.712000000
O    -1.856000000     0.828000000    -3.216000000
