14
-83.76140
C    -0.364000000    -0.842000000     1.202000000
H    -0.680000000    -1.459000000     2.039000000
C    -0.482000000     0.547000000     1.120000000
H    -0.827000000     1.052000000     2.019000000
C    -0.154000000     1.235000000    -0.005000000
H    -0.216000000     2.307000000     0.167000000
C     0.330000000     0.511000000    -1.077000000
H     0.535000000     1.087000000    -1.976000000
C     0.365000000    -0.904000000    -1.127000000
H     0.783000000    -1.314000000    -2.042000000
C    -0.011000000    -1.601000000     0.004000000
C     0.278000000    -3.081000000     0.077000000
O     0.639000000    -3.661000000    -0.898000000
O     0.193000000    -3.663000000     1.183000000
