14
-91.54147
C    -0.924000000    -1.064000000     0.471000000
H    -1.624000000    -1.806000000     0.847000000
C    -0.167000000    -0.274000000     1.311000000
H    -0.253000000    -0.406000000     2.387000000
C     0.674000000     0.691000000     0.786000000
H     1.367000000     1.301000000     1.342000000
C     0.714000000     0.892000000    -0.602000000
H     1.346000000     1.676000000    -1.011000000
C    -0.032000000     0.097000000    -1.452000000
H     0.040000000     0.211000000    -2.531000000
C    -0.901000000    -0.841000000    -0.921000000
C    -1.709000000    -1.720000000    -1.920000000
O    -1.975000000    -2.824000000    -1.519000000
O    -1.677000000    -1.413000000    -3.130000000
