14
-86.62407
C    -0.767000000    -1.023000000     0.758000000
H    -1.283000000    -1.658000000     1.474000000
C    -0.065000000     0.011000000     1.265000000
H    -0.069000000     0.167000000     2.341000000
C     0.547000000     0.948000000     0.428000000
H     1.152000000     1.859000000     0.764000000
C     0.608000000     0.763000000    -0.919000000
H     1.157000000     1.472000000    -1.533000000
C    -0.004000000    -0.354000000    -1.431000000
H     0.052000000    -0.500000000    -2.506000000
C    -0.735000000    -1.198000000    -0.630000000
C    -1.507000000    -2.310000000    -1.244000000
O    -2.347000000    -2.949000000    -0.606000000
O    -1.226000000    -2.571000000    -2.394000000
