14
-92.68764
C    -0.734000000    -0.597000000     1.222000000
H    -1.179000000    -1.037000000     2.111000000
C     0.590000000    -0.127000000     1.235000000
H     1.150000000    -0.247000000     2.159000000
C     1.115000000     0.436000000     0.055000000
H     2.135000000     0.874000000     0.016000000
C     0.385000000     0.599000000    -1.124000000
H     0.899000000     0.983000000    -2.002000000
C    -0.963000000     0.170000000    -1.056000000
H    -1.643000000     0.298000000    -1.895000000
C    -1.461000000    -0.477000000     0.024000000
C    -2.880000000    -0.975000000    -0.025000000
O    -3.215000000    -1.860000000     0.769000000
O    -3.563000000    -0.612000000    -0.987000000
