14
-81.48420
C    -0.467000000    -1.390000000     0.143000000
H    -0.688000000    -2.435000000     0.341000000
C    -0.326000000    -0.502000000     1.190000000
H    -0.453000000    -0.819000000     2.222000000
C     0.230000000     0.742000000     0.897000000
H     0.470000000     1.418000000     1.680000000
C     0.421000000     1.153000000    -0.416000000
H     0.798000000     2.145000000    -0.651000000
C     0.124000000     0.310000000    -1.460000000
H     0.261000000     0.770000000    -2.435000000
C    -0.246000000    -1.007000000    -1.205000000
C    -0.486000000    -1.990000000    -2.328000000
O    -0.996000000    -3.057000000    -2.224000000
O    -0.213000000    -1.650000000    -3.456000000
