14
-83.90961
C    -0.572000000    -1.112000000     0.789000000
H    -0.885000000    -1.975000000     1.371000000
C     0.719000000    -0.551000000     1.063000000
H     1.455000000    -1.016000000     1.713000000
C     1.102000000     0.580000000     0.317000000
H     1.970000000     1.124000000     0.381000000
C     0.170000000     1.102000000    -0.640000000
H     0.597000000     1.875000000    -1.273000000
C    -1.034000000     0.541000000    -0.937000000
H    -1.535000000     0.901000000    -1.833000000
C    -1.458000000    -0.589000000    -0.190000000
C    -2.747000000    -1.404000000    -0.541000000
O    -2.997000000    -2.439000000     0.153000000
O    -3.599000000    -1.071000000    -1.341000000
