14
-88.99504
C    -0.361000000    -0.321000000     1.418000000
H    -0.459000000    -0.386000000     2.499000000
C    -0.269000000     0.958000000     0.848000000
H    -0.351000000     1.788000000     1.546000000
C     0.129000000     1.160000000    -0.466000000
H     0.271000000     2.170000000    -0.931000000
C     0.135000000     0.025000000    -1.310000000
H     0.260000000     0.135000000    -2.385000000
C     0.013000000    -1.251000000    -0.783000000
H    -0.010000000    -2.071000000    -1.497000000
C    -0.162000000    -1.472000000     0.570000000
C    -0.150000000    -2.871000000     1.179000000
O     0.099000000    -3.790000000     0.413000000
O    -0.425000000    -3.132000000     2.353000000
