14
-88.98839
C    -1.384000000    -0.140000000     0.614000000
H    -2.373000000     0.016000000     1.039000000
C    -0.382000000     0.703000000     1.091000000
H    -0.479000000     1.469000000     1.856000000
C     0.910000000     0.630000000     0.506000000
H     1.656000000     1.258000000     0.904000000
C     1.113000000    -0.244000000    -0.592000000
H     2.092000000    -0.328000000    -1.058000000
C     0.112000000    -0.989000000    -1.135000000
H     0.414000000    -1.676000000    -1.922000000
C    -1.147000000    -0.956000000    -0.555000000
C    -2.288000000    -1.660000000    -1.216000000
O    -3.411000000    -1.295000000    -0.823000000
O    -2.124000000    -2.412000000    -2.161000000
