14
-85.38295
C    -1.477000000    -0.031000000     0.256000000
H    -2.533000000     0.141000000     0.447000000
C    -0.671000000     1.083000000     0.139000000
H    -1.028000000     2.099000000     0.286000000
C     0.677000000     1.001000000    -0.133000000
H     1.283000000     1.930000000    -0.334000000
C     1.265000000    -0.283000000    -0.306000000
H     2.342000000    -0.306000000    -0.451000000
C     0.483000000    -1.421000000    -0.198000000
H     0.975000000    -2.388000000    -0.268000000
C    -0.874000000    -1.302000000     0.126000000
C    -1.701000000    -2.561000000     0.272000000
O    -2.699000000    -2.523000000     0.937000000
O    -1.351000000    -3.579000000    -0.223000000
