14
-79.24418
C    -1.231000000    -0.615000000     0.483000000
H    -2.215000000    -0.848000000     0.881000000
C    -0.963000000     0.758000000     0.490000000
H    -1.673000000     1.552000000     0.703000000
C     0.309000000     1.230000000     0.050000000
H     0.502000000     2.321000000    -0.062000000
C     1.240000000     0.261000000    -0.337000000
H     2.252000000     0.613000000    -0.521000000
C     0.883000000    -1.103000000    -0.201000000
H     1.675000000    -1.805000000    -0.446000000
C    -0.411000000    -1.589000000     0.081000000
C    -0.760000000    -3.087000000    -0.014000000
O    -1.930000000    -3.363000000    -0.053000000
O     0.060000000    -3.926000000    -0.215000000
