14
-88.99019
C    -0.952000000    -0.251000000     1.162000000
H    -1.595000000    -0.333000000     2.035000000
C    -0.686000000     1.042000000     0.656000000
H    -1.268000000     1.872000000     1.047000000
C     0.214000000     1.146000000    -0.381000000
H     0.438000000     2.124000000    -0.876000000
C     0.910000000     0.030000000    -0.919000000
H     1.610000000     0.216000000    -1.729000000
C     0.572000000    -1.235000000    -0.442000000
H     1.097000000    -2.095000000    -0.849000000
C    -0.369000000    -1.408000000     0.636000000
C    -0.662000000    -2.818000000     1.064000000
O    -1.254000000    -2.934000000     2.105000000
O    -0.386000000    -3.795000000     0.401000000
