14
-82.52624
C    -1.257000000    -0.496000000     0.614000000
H    -2.187000000    -0.782000000     1.099000000
C    -0.859000000     0.851000000     0.597000000
H    -1.516000000     1.688000000     0.821000000
C     0.326000000     1.186000000    -0.062000000
H     0.692000000     2.206000000    -0.414000000
C     1.116000000     0.212000000    -0.631000000
H     2.018000000     0.467000000    -1.181000000
C     0.780000000    -1.146000000    -0.532000000
H     1.435000000    -1.892000000    -0.976000000
C    -0.440000000    -1.533000000     0.078000000
C    -0.839000000    -2.985000000     0.110000000
O    -1.802000000    -3.429000000     0.777000000
O    -0.018000000    -3.850000000    -0.223000000
