14
-90.78953
C    -1.483000000     0.309000000     0.069000000
H    -2.523000000     0.625000000     0.091000000
C    -0.512000000     0.888000000     0.872000000
H    -0.685000000     1.612000000     1.664000000
C     0.873000000     0.563000000     0.667000000
H     1.658000000     0.995000000     1.251000000
C     1.245000000    -0.404000000    -0.256000000
H     2.290000000    -0.655000000    -0.419000000
C     0.290000000    -1.015000000    -1.055000000
H     0.585000000    -1.650000000    -1.886000000
C    -1.108000000    -0.689000000    -0.864000000
C    -2.220000000    -1.406000000    -1.599000000
O    -3.323000000    -0.876000000    -1.795000000
O    -1.891000000    -2.430000000    -2.192000000
