14
-85.28015
C    -1.415000000     0.325000000    -0.097000000
H    -2.436000000     0.691000000    -0.170000000
C    -0.492000000     1.059000000     0.547000000
H    -0.773000000     2.071000000     0.825000000
C     0.847000000     0.627000000     0.538000000
H     1.574000000     1.386000000     0.924000000
C     1.254000000    -0.572000000     0.051000000
H     2.265000000    -0.936000000     0.218000000
C     0.230000000    -1.361000000    -0.471000000
H     0.472000000    -2.355000000    -0.837000000
C    -1.077000000    -0.873000000    -0.602000000
C    -2.089000000    -1.703000000    -1.323000000
O    -3.207000000    -1.247000000    -1.655000000
O    -1.864000000    -2.901000000    -1.502000000
