14
-71.24228
C    -1.477000000     0.057000000    -0.248000000
H    -2.554000000     0.195000000    -0.287000000
C    -0.698000000     0.950000000     0.545000000
H    -1.192000000     1.744000000     1.099000000
C     0.630000000     0.697000000     0.752000000
H     1.182000000     1.429000000     1.339000000
C     1.275000000    -0.344000000     0.190000000
H     2.301000000    -0.627000000     0.408000000
C     0.545000000    -1.069000000    -0.690000000
H     0.953000000    -1.946000000    -1.187000000
C    -0.857000000    -0.947000000    -0.936000000
C    -1.557000000    -1.790000000    -1.876000000
O    -2.634000000    -1.382000000    -2.191000000
O    -0.930000000    -2.490000000    -2.627000000
