14
-89.58112
C    -1.511000000    -0.199000000     0.138000000
H    -2.569000000    -0.300000000     0.364000000
C    -0.669000000     0.581000000     0.953000000
H    -1.045000000     1.109000000     1.826000000
C     0.676000000     0.706000000     0.747000000
H     1.271000000     1.382000000     1.382000000
C     1.300000000    -0.104000000    -0.198000000
H     2.379000000    -0.132000000    -0.325000000
C     0.560000000    -0.941000000    -1.011000000
H     1.053000000    -1.417000000    -1.854000000
C    -0.882000000    -0.951000000    -0.891000000
C    -1.726000000    -1.789000000    -1.852000000
O    -2.915000000    -1.580000000    -1.878000000
O    -1.167000000    -2.482000000    -2.701000000
