14
-84.67457
C    -1.365000000     0.430000000    -0.227000000
H    -2.379000000     0.819000000    -0.259000000
C    -0.439000000     0.966000000     0.689000000
H    -0.791000000     1.730000000     1.378000000
C     0.845000000     0.399000000     0.789000000
H     1.508000000     0.781000000     1.561000000
C     1.263000000    -0.583000000    -0.060000000
H     2.327000000    -0.794000000     0.010000000
C     0.322000000    -1.127000000    -0.950000000
H     0.704000000    -2.008000000    -1.459000000
C    -1.064000000    -0.721000000    -0.963000000
C    -2.109000000    -1.436000000    -1.708000000
O    -3.262000000    -1.023000000    -1.578000000
O    -1.785000000    -2.218000000    -2.560000000
