14
-80.93458
C    -0.698000000    -1.336000000     0.035000000
H    -1.086000000    -2.347000000     0.126000000
C    -0.296000000    -0.575000000     1.153000000
H    -0.443000000    -1.083000000     2.102000000
C     0.319000000     0.683000000     1.041000000
H     0.589000000     1.249000000     1.901000000
C     0.539000000     1.167000000    -0.253000000
H     1.140000000     2.052000000    -0.445000000
C     0.094000000     0.459000000    -1.414000000
H     0.274000000     0.918000000    -2.383000000
C    -0.507000000    -0.821000000    -1.291000000
C    -0.935000000    -1.558000000    -2.544000000
O    -1.584000000    -2.551000000    -2.471000000
O    -0.617000000    -1.177000000    -3.610000000
