14
-86.17622
C    -0.770000000    -1.127000000     0.604000000
H    -1.305000000    -1.889000000     1.165000000
C    -0.112000000    -0.102000000     1.257000000
H    -0.177000000    -0.100000000     2.342000000
C     0.569000000     0.971000000     0.556000000
H     0.901000000     1.883000000     1.076000000
C     0.677000000     0.840000000    -0.841000000
H     1.192000000     1.608000000    -1.413000000
C     0.070000000    -0.232000000    -1.457000000
H     0.118000000    -0.255000000    -2.542000000
C    -0.702000000    -1.158000000    -0.792000000
C    -1.398000000    -2.262000000    -1.487000000
O    -1.576000000    -3.284000000    -0.867000000
O    -1.588000000    -2.217000000    -2.676000000
