14
-80.72613
C    -0.951000000    -0.928000000     0.657000000
H    -1.713000000    -1.546000000     1.125000000
C    -0.271000000     0.071000000     1.369000000
H    -0.527000000     0.189000000     2.419000000
C     0.695000000     0.824000000     0.639000000
H     1.316000000     1.630000000     1.144000000
C     0.816000000     0.666000000    -0.752000000
H     1.428000000     1.354000000    -1.330000000
C     0.028000000    -0.283000000    -1.394000000
H     0.137000000    -0.305000000    -2.475000000
C    -0.746000000    -1.190000000    -0.717000000
C    -1.432000000    -2.272000000    -1.478000000
O    -2.161000000    -3.084000000    -0.975000000
O    -1.240000000    -2.447000000    -2.662000000
