14
-83.31231
C    -0.943000000    -1.181000000     0.180000000
H    -1.625000000    -2.020000000     0.294000000
C    -0.489000000    -0.347000000     1.205000000
H    -0.851000000    -0.502000000     2.218000000
C     0.366000000     0.684000000     0.935000000
H     0.785000000     1.145000000     1.754000000
C     0.785000000     0.888000000    -0.336000000
H     1.497000000     1.691000000    -0.506000000
C     0.355000000     0.126000000    -1.382000000
H     0.737000000     0.228000000    -2.395000000
C    -0.554000000    -0.901000000    -1.150000000
C    -0.866000000    -1.816000000    -2.281000000
O    -1.693000000    -2.669000000    -2.108000000
O    -0.430000000    -1.683000000    -3.434000000
