14
-84.03060
C    -0.601000000    -1.396000000     0.114000000
H    -1.115000000    -2.335000000     0.302000000
C    -0.716000000    -0.395000000     1.100000000
H    -1.356000000    -0.517000000     1.970000000
C    -0.009000000     0.841000000     0.937000000
H    -0.095000000     1.648000000     1.700000000
C     0.660000000     1.039000000    -0.331000000
H     1.007000000     2.047000000    -0.542000000
C     0.765000000     0.050000000    -1.308000000
H     1.205000000     0.405000000    -2.236000000
C     0.095000000    -1.163000000    -1.137000000
C     0.219000000    -2.165000000    -2.222000000
O    -0.614000000    -3.145000000    -2.251000000
O     1.241000000    -2.204000000    -2.869000000
