14
-86.21833
C    -0.950000000    -1.011000000    -0.617000000
H    -1.584000000    -1.668000000    -1.206000000
C    -1.266000000     0.319000000    -0.299000000
H    -2.194000000     0.714000000    -0.702000000
C    -0.326000000     1.123000000     0.330000000
H    -0.387000000     2.228000000     0.501000000
C     0.897000000     0.617000000     0.754000000
H     1.602000000     1.322000000     1.188000000
C     1.232000000    -0.712000000     0.468000000
H     2.214000000    -1.079000000     0.756000000
C     0.270000000    -1.520000000    -0.130000000
C     0.772000000    -2.767000000    -0.844000000
O    -0.027000000    -3.510000000    -1.382000000
O     1.946000000    -3.089000000    -0.745000000
