14
-73.86676
C    -0.322000000     0.432000000    -1.360000000
H    -0.574000000     0.921000000    -2.298000000
C    -0.904000000     0.986000000    -0.225000000
H    -1.605000000     1.815000000    -0.283000000
C    -0.541000000     0.440000000     1.005000000
H    -0.964000000     0.811000000     1.964000000
C     0.335000000    -0.619000000     1.103000000
H     0.524000000    -1.005000000     2.102000000
C     1.001000000    -1.201000000    -0.045000000
H     1.657000000    -2.068000000    -0.040000000
C     0.665000000    -0.601000000    -1.294000000
C     1.260000000    -1.181000000    -2.533000000
O     1.341000000    -0.586000000    -3.578000000
O     2.161000000    -2.018000000    -2.426000000
