14
-79.78902
C     0.198000000     0.552000000    -1.368000000
H     0.271000000     1.150000000    -2.273000000
C    -0.309000000     1.263000000    -0.261000000
H    -0.402000000     2.344000000    -0.341000000
C    -0.462000000     0.583000000     0.968000000
H    -0.721000000     1.276000000     1.776000000
C    -0.240000000    -0.820000000     1.044000000
H    -0.312000000    -1.271000000     2.031000000
C     0.176000000    -1.532000000    -0.117000000
H     0.484000000    -2.567000000     0.003000000
C     0.510000000    -0.804000000    -1.240000000
C     1.277000000    -1.525000000    -2.403000000
O     1.717000000    -0.808000000    -3.246000000
O     1.676000000    -2.676000000    -2.389000000
