14
-89.68190
C    -0.224000000    -0.395000000    -1.394000000
H    -0.425000000    -0.679000000    -2.423000000
C    -0.940000000     0.521000000    -0.699000000
H    -1.759000000     1.074000000    -1.152000000
C    -0.622000000     0.878000000     0.594000000
H    -1.086000000     1.683000000     1.218000000
C     0.461000000     0.264000000     1.157000000
H     0.704000000     0.639000000     2.148000000
C     1.237000000    -0.667000000     0.440000000
H     2.139000000    -1.010000000     0.941000000
C     0.920000000    -1.019000000    -0.849000000
C     1.587000000    -2.184000000    -1.516000000
O     1.206000000    -2.426000000    -2.683000000
O     2.397000000    -2.931000000    -0.911000000
