14
-78.98073
C     0.101000000     0.268000000    -1.495000000
H     0.344000000     0.511000000    -2.526000000
C     0.950000000     0.741000000    -0.491000000
H     1.750000000     1.448000000    -0.698000000
C     0.728000000     0.437000000     0.888000000
H     1.260000000     1.005000000     1.713000000
C    -0.282000000    -0.404000000     1.204000000
H    -0.451000000    -0.593000000     2.261000000
C    -0.998000000    -0.964000000     0.158000000
H    -1.752000000    -1.710000000     0.397000000
C    -0.831000000    -0.656000000    -1.167000000
C    -1.733000000    -1.221000000    -2.234000000
O    -1.421000000    -1.227000000    -3.363000000
O    -2.707000000    -1.923000000    -1.892000000
