14
-90.42381
C     0.470000000     1.002000000    -0.966000000
H     0.855000000     1.764000000    -1.639000000
C    -0.090000000     1.320000000     0.309000000
H    -0.103000000     2.332000000     0.705000000
C    -0.465000000     0.271000000     1.109000000
H    -0.848000000     0.425000000     2.151000000
C    -0.308000000    -1.027000000     0.707000000
H    -0.633000000    -1.861000000     1.324000000
C     0.179000000    -1.310000000    -0.575000000
H     0.146000000    -2.332000000    -0.943000000
C     0.594000000    -0.303000000    -1.425000000
C     1.132000000    -0.662000000    -2.836000000
O     1.439000000     0.304000000    -3.598000000
O     1.370000000    -1.788000000    -3.206000000
