14
-88.69137
C     0.491000000     0.870000000    -1.210000000
H     0.839000000     1.591000000    -1.945000000
C     0.592000000     1.123000000     0.147000000
H     1.034000000     2.057000000     0.486000000
C     0.213000000     0.270000000     1.162000000
H     0.300000000     0.571000000     2.181000000
C    -0.300000000    -1.031000000     0.805000000
H    -0.657000000    -1.688000000     1.594000000
C    -0.472000000    -1.274000000    -0.530000000
H    -0.963000000    -2.215000000    -0.765000000
C    -0.154000000    -0.390000000    -1.536000000
C    -0.374000000    -0.744000000    -2.930000000
O     0.185000000    -0.085000000    -3.810000000
O    -1.107000000    -1.711000000    -3.144000000
