14
-90.90809
C    -0.542000000    -0.535000000     1.352000000
H    -0.706000000    -0.873000000     2.372000000
C    -0.140000000     0.826000000     1.081000000
H    -0.120000000     1.538000000     1.903000000
C     0.237000000     1.203000000    -0.221000000
H     0.651000000     2.133000000    -0.486000000
C     0.369000000     0.221000000    -1.201000000
H     0.881000000     0.397000000    -2.144000000
C     0.045000000    -1.085000000    -0.919000000
H     0.240000000    -1.840000000    -1.676000000
C    -0.499000000    -1.494000000     0.299000000
C    -0.855000000    -2.945000000     0.562000000
O    -0.320000000    -3.809000000    -0.150000000
O    -1.564000000    -3.140000000     1.522000000
