14
-81.97778
C     0.333000000     0.949000000    -0.994000000
H     0.785000000     1.697000000    -1.639000000
C     1.049000000     0.768000000     0.228000000
H     1.899000000     1.364000000     0.550000000
C     0.548000000    -0.181000000     1.064000000
H     1.015000000    -0.257000000     2.030000000
C    -0.500000000    -1.052000000     0.706000000
H    -0.876000000    -1.619000000     1.554000000
C    -1.086000000    -0.918000000    -0.604000000
H    -1.972000000    -1.470000000    -0.908000000
C    -0.593000000     0.067000000    -1.467000000
C    -1.278000000     0.394000000    -2.837000000
O    -1.022000000     1.463000000    -3.451000000
O    -2.151000000    -0.299000000    -3.277000000
