14
-90.57945
C     1.476000000    -0.292000000    -0.121000000
H     2.555000000    -0.424000000    -0.127000000
C     0.768000000     0.038000000     1.063000000
H     1.350000000     0.129000000     1.976000000
C    -0.606000000     0.168000000     1.064000000
H    -1.009000000     0.404000000     2.006000000
C    -1.296000000     0.141000000    -0.171000000
H    -2.357000000     0.365000000    -0.095000000
C    -0.642000000    -0.109000000    -1.372000000
H    -1.244000000     0.023000000    -2.267000000
C     0.766000000    -0.338000000    -1.366000000
C     1.479000000    -0.729000000    -2.626000000
O     2.722000000    -0.823000000    -2.684000000
O     0.796000000    -0.741000000    -3.665000000
