14
-84.88425
C    -0.110000000     0.906000000    -1.199000000
H    -0.099000000     1.536000000    -2.084000000
C     0.446000000     1.311000000     0.052000000
H     0.825000000     2.309000000     0.253000000
C     0.520000000     0.338000000     1.081000000
H     0.910000000     0.591000000     2.049000000
C    -0.124000000    -0.875000000     0.897000000
H    -0.095000000    -1.613000000     1.695000000
C    -0.719000000    -1.231000000    -0.306000000
H    -1.101000000    -2.248000000    -0.341000000
C    -0.626000000    -0.375000000    -1.403000000
C    -1.040000000    -0.788000000    -2.804000000
O    -0.892000000    -0.106000000    -3.734000000
O    -1.732000000    -1.854000000    -2.904000000
