14
-89.24119
C     0.969000000    -0.230000000    -1.091000000
H     1.835000000    -0.262000000    -1.747000000
C     1.205000000     0.277000000     0.146000000
H     2.211000000     0.634000000     0.351000000
C     0.247000000     0.392000000     1.131000000
H     0.531000000     0.908000000     2.017000000
C    -1.057000000    -0.122000000     0.882000000
H    -1.836000000    -0.031000000     1.635000000
C    -1.373000000    -0.548000000    -0.427000000
H    -2.387000000    -0.841000000    -0.687000000
C    -0.336000000    -0.661000000    -1.387000000
C    -0.660000000    -1.021000000    -2.828000000
O     0.175000000    -0.879000000    -3.722000000
O    -1.718000000    -1.572000000    -3.005000000
