14
-93.10530
C     0.763000000    -0.751000000    -1.020000000
H     1.461000000    -1.253000000    -1.685000000
C     1.277000000     0.278000000    -0.249000000
H     2.251000000     0.729000000    -0.423000000
C     0.451000000     0.901000000     0.651000000
H     0.835000000     1.741000000     1.284000000
C    -0.862000000     0.425000000     0.962000000
H    -1.506000000     0.910000000     1.691000000
C    -1.292000000    -0.650000000     0.225000000
H    -2.258000000    -1.092000000     0.454000000
C    -0.509000000    -1.239000000    -0.813000000
C    -1.143000000    -2.325000000    -1.684000000
O    -0.567000000    -2.712000000    -2.706000000
O    -2.239000000    -2.759000000    -1.346000000
