14
-84.08392
C     0.585000000     0.734000000    -1.173000000
H     0.950000000     1.263000000    -2.050000000
C     0.656000000     1.167000000     0.130000000
H     1.070000000     2.131000000     0.412000000
C     0.122000000     0.371000000     1.179000000
H     0.061000000     0.659000000     2.245000000
C    -0.547000000    -0.807000000     0.944000000
H    -0.822000000    -1.485000000     1.748000000
C    -0.504000000    -1.304000000    -0.378000000
H    -0.943000000    -2.276000000    -0.587000000
C     0.057000000    -0.514000000    -1.471000000
C    -0.212000000    -0.929000000    -2.910000000
O     0.144000000    -0.254000000    -3.868000000
O    -0.753000000    -1.994000000    -3.152000000
