14
-85.03483
C     1.465000000     0.328000000    -0.241000000
H     2.458000000     0.748000000    -0.383000000
C     0.909000000     0.139000000     1.013000000
H     1.456000000     0.297000000     1.939000000
C    -0.457000000    -0.274000000     1.113000000
H    -0.800000000    -0.447000000     2.154000000
C    -1.249000000    -0.343000000    -0.026000000
H    -2.313000000    -0.525000000     0.101000000
C    -0.662000000    -0.167000000    -1.299000000
H    -1.355000000    -0.170000000    -2.137000000
C     0.685000000     0.080000000    -1.388000000
C     1.197000000     0.297000000    -2.759000000
O     2.234000000     0.928000000    -2.941000000
O     0.664000000    -0.181000000    -3.707000000
