14
-92.61525
C     0.830000000     0.099000000    -1.250000000
H     1.496000000     0.139000000    -2.109000000
C     0.967000000     0.912000000    -0.132000000
H     1.812000000     1.596000000    -0.126000000
C     0.114000000     0.785000000     0.982000000
H     0.187000000     1.407000000     1.880000000
C    -0.853000000    -0.190000000     0.970000000
H    -1.576000000    -0.272000000     1.778000000
C    -1.111000000    -0.964000000    -0.192000000
H    -1.889000000    -1.720000000    -0.251000000
C    -0.182000000    -0.910000000    -1.274000000
C    -0.301000000    -1.959000000    -2.374000000
O     0.743000000    -2.370000000    -2.959000000
O    -1.431000000    -2.523000000    -2.566000000
