14
-86.16637
C     0.676000000    -0.549000000    -1.154000000
H     1.400000000    -1.017000000    -1.816000000
C     1.192000000     0.330000000    -0.245000000
H     2.265000000     0.497000000    -0.295000000
C     0.414000000     0.897000000     0.789000000
H     0.764000000     1.616000000     1.476000000
C    -0.905000000     0.533000000     0.822000000
H    -1.601000000     0.897000000     1.573000000
C    -1.410000000    -0.483000000     0.029000000
H    -2.460000000    -0.746000000     0.138000000
C    -0.631000000    -0.969000000    -1.061000000
C    -1.076000000    -2.062000000    -2.049000000
O    -0.387000000    -2.464000000    -2.963000000
O    -2.285000000    -2.367000000    -2.015000000
