14
-83.91327
C    -0.532000000    -0.353000000     1.325000000
H    -0.808000000    -0.492000000     2.367000000
C    -0.231000000     0.928000000     0.875000000
H    -0.401000000     1.786000000     1.521000000
C     0.170000000     1.117000000    -0.467000000
H     0.365000000     2.126000000    -0.859000000
C     0.489000000     0.037000000    -1.227000000
H     0.876000000     0.151000000    -2.236000000
C     0.252000000    -1.225000000    -0.762000000
H     0.489000000    -2.129000000    -1.317000000
C    -0.335000000    -1.455000000     0.473000000
C    -0.506000000    -2.811000000     1.024000000
O    -0.165000000    -3.758000000     0.410000000
O    -0.977000000    -3.027000000     2.177000000
