14
-87.08231
C    -0.520000000    -0.029000000    -1.406000000
H    -0.789000000    -0.195000000    -2.447000000
C     0.740000000     0.394000000    -1.002000000
H     1.467000000     0.634000000    -1.774000000
C     1.088000000     0.472000000     0.328000000
H     2.069000000     0.752000000     0.664000000
C     0.195000000     0.029000000     1.303000000
H     0.399000000    -0.057000000     2.367000000
C    -1.064000000    -0.448000000     0.913000000
H    -1.702000000    -0.993000000     1.604000000
C    -1.385000000    -0.508000000    -0.448000000
C    -2.592000000    -1.217000000    -0.921000000
O    -2.976000000    -1.201000000    -2.079000000
O    -3.342000000    -1.693000000    -0.075000000
