14
-88.11659
C    -0.034000000    -1.485000000    -0.045000000
H     0.115000000    -2.560000000    -0.118000000
C     1.084000000    -0.748000000     0.293000000
H     2.020000000    -1.242000000     0.542000000
C     1.015000000     0.643000000     0.274000000
H     1.805000000     1.279000000     0.404000000
C    -0.210000000     1.248000000     0.003000000
H    -0.230000000     2.317000000    -0.192000000
C    -1.353000000     0.506000000    -0.295000000
H    -2.223000000     1.084000000    -0.593000000
C    -1.293000000    -0.910000000    -0.327000000
C    -2.521000000    -1.645000000    -0.851000000
O    -2.489000000    -2.905000000    -0.958000000
O    -3.621000000    -1.090000000    -0.934000000
