14
-85.20538
C     0.605000000     0.976000000    -0.914000000
H     1.081000000     1.705000000    -1.566000000
C     1.096000000     0.687000000     0.354000000
H     1.888000000     1.265000000     0.823000000
C     0.332000000    -0.155000000     1.162000000
H     0.578000000    -0.248000000     2.206000000
C    -0.787000000    -0.854000000     0.711000000
H    -1.360000000    -1.552000000     1.316000000
C    -1.109000000    -0.668000000    -0.665000000
H    -2.026000000    -1.111000000    -1.046000000
C    -0.455000000     0.247000000    -1.463000000
C    -0.721000000     0.477000000    -2.937000000
O    -0.053000000     1.232000000    -3.621000000
O    -1.706000000     0.009000000    -3.428000000
