14
-89.84416
C     0.288000000     0.799000000    -1.206000000
H     0.723000000     1.358000000    -2.030000000
C     1.164000000     0.599000000    -0.209000000
H     2.162000000     1.027000000    -0.161000000
C     0.785000000    -0.227000000     0.896000000
H     1.396000000    -0.322000000     1.825000000
C    -0.517000000    -0.711000000     0.947000000
H    -0.767000000    -1.293000000     1.830000000
C    -1.384000000    -0.565000000    -0.131000000
H    -2.381000000    -0.993000000    -0.066000000
C    -0.984000000     0.234000000    -1.237000000
C    -1.894000000     0.469000000    -2.367000000
O    -1.410000000     0.959000000    -3.410000000
O    -3.068000000     0.131000000    -2.257000000
