14
-83.19839
C     1.406000000     0.357000000    -0.406000000
H     2.432000000     0.529000000    -0.721000000
C     1.098000000    -0.250000000     0.830000000
H     1.804000000    -0.504000000     1.615000000
C    -0.261000000    -0.379000000     1.157000000
H    -0.569000000    -0.810000000     2.055000000
C    -1.244000000    -0.053000000     0.206000000
H    -2.303000000    -0.161000000     0.423000000
C    -0.932000000     0.338000000    -1.081000000
H    -1.704000000     0.539000000    -1.819000000
C     0.408000000     0.540000000    -1.433000000
C     0.795000000     0.860000000    -2.847000000
O     1.909000000     1.151000000    -3.101000000
O    -0.116000000     1.049000000    -3.611000000
