14
-74.55231
C     0.320000000     1.230000000    -0.785000000
H     0.585000000     2.207000000    -1.182000000
C     0.650000000     0.947000000     0.591000000
H     1.152000000     1.691000000     1.203000000
C     0.245000000    -0.230000000     1.165000000
H     0.633000000    -0.537000000     2.209000000
C    -0.508000000    -1.150000000     0.405000000
H    -0.720000000    -2.136000000     0.810000000
C    -0.826000000    -0.862000000    -0.899000000
H    -1.322000000    -1.678000000    -1.418000000
C    -0.326000000     0.294000000    -1.553000000
C    -0.551000000     0.560000000    -3.004000000
O     0.282000000     1.139000000    -3.619000000
O    -1.594000000     0.387000000    -3.496000000
