14
-86.33166
C     0.622000000     0.921000000    -0.907000000
H     1.128000000     1.617000000    -1.572000000
C     1.227000000     0.277000000     0.126000000
H     2.240000000     0.507000000     0.445000000
C     0.485000000    -0.527000000     1.015000000
H     0.877000000    -1.018000000     1.841000000
C    -0.819000000    -0.772000000     0.712000000
H    -1.333000000    -1.447000000     1.392000000
C    -1.441000000    -0.283000000    -0.469000000
H    -2.489000000    -0.463000000    -0.692000000
C    -0.685000000     0.588000000    -1.238000000
C    -1.285000000     1.291000000    -2.402000000
O    -0.553000000     1.918000000    -3.124000000
O    -2.497000000     1.238000000    -2.695000000
