14
-82.26516
C     0.575000000     1.110000000    -0.796000000
H     1.109000000     1.893000000    -1.329000000
C     1.153000000     0.528000000     0.339000000
H     2.070000000     0.888000000     0.799000000
C     0.540000000    -0.530000000     0.951000000
H     0.931000000    -1.013000000     1.792000000
C    -0.684000000    -1.001000000     0.536000000
H    -1.188000000    -1.855000000     0.982000000
C    -1.179000000    -0.405000000    -0.611000000
H    -2.128000000    -0.840000000    -0.915000000
C    -0.605000000     0.724000000    -1.306000000
C    -1.416000000     1.404000000    -2.361000000
O    -0.825000000     2.031000000    -3.270000000
O    -2.591000000     1.184000000    -2.473000000
