14
-93.71467
C     0.903000000     0.826000000    -0.802000000
H     1.657000000     1.419000000    -1.312000000
C     0.983000000     0.680000000     0.564000000
H     1.722000000     1.158000000     1.203000000
C     0.042000000    -0.096000000     1.240000000
H     0.063000000    -0.022000000     2.311000000
C    -0.974000000    -0.719000000     0.535000000
H    -1.624000000    -1.390000000     1.090000000
C    -1.000000000    -0.632000000    -0.856000000
H    -1.717000000    -1.176000000    -1.465000000
C    -0.093000000     0.177000000    -1.559000000
C    -0.195000000     0.298000000    -3.084000000
O     0.586000000     1.009000000    -3.723000000
O    -0.960000000    -0.488000000    -3.629000000
