14
-90.81586
C     1.412000000     0.162000000    -0.481000000
H     2.458000000     0.324000000    -0.731000000
C     1.023000000    -0.086000000     0.851000000
H     1.752000000    -0.219000000     1.647000000
C    -0.326000000    -0.242000000     1.185000000
H    -0.621000000    -0.250000000     2.278000000
C    -1.258000000    -0.229000000     0.147000000
H    -2.326000000    -0.357000000     0.306000000
C    -0.910000000     0.014000000    -1.203000000
H    -1.687000000     0.036000000    -1.963000000
C     0.434000000     0.364000000    -1.469000000
C     0.819000000     0.716000000    -2.867000000
O     1.937000000     0.389000000    -3.276000000
O     0.036000000     1.270000000    -3.643000000
