14
-80.98527
C     1.285000000     0.421000000    -0.369000000
H     2.307000000     0.713000000    -0.597000000
C     0.983000000    -0.041000000     0.865000000
H     1.779000000    -0.283000000     1.565000000
C    -0.268000000    -0.504000000     1.116000000
H    -0.627000000    -0.775000000     2.070000000
C    -1.283000000    -0.216000000     0.164000000
H    -2.322000000    -0.508000000     0.299000000
C    -0.951000000     0.326000000    -1.103000000
H    -1.765000000     0.431000000    -1.815000000
C     0.391000000     0.589000000    -1.393000000
C     0.778000000     1.114000000    -2.727000000
O     1.911000000     1.092000000    -3.089000000
O    -0.071000000     1.593000000    -3.475000000
