14
-88.57503
C     1.288000000     0.424000000    -0.563000000
H     2.262000000     0.786000000    -0.884000000
C     1.020000000     0.250000000     0.776000000
H     1.880000000     0.286000000     1.440000000
C    -0.247000000    -0.122000000     1.182000000
H    -0.393000000    -0.275000000     2.226000000
C    -1.241000000    -0.342000000     0.270000000
H    -2.225000000    -0.684000000     0.578000000
C    -0.952000000    -0.086000000    -1.072000000
H    -1.758000000    -0.288000000    -1.772000000
C     0.303000000     0.354000000    -1.504000000
C     0.595000000     0.502000000    -2.951000000
O     1.464000000     1.214000000    -3.390000000
O    -0.082000000    -0.195000000    -3.724000000
