14
-89.50753
C     1.017000000    -0.819000000     0.523000000
H     1.595000000    -1.613000000     0.989000000
C    -0.237000000    -0.622000000     1.036000000
H    -0.553000000    -1.311000000     1.815000000
C    -1.126000000     0.265000000     0.403000000
H    -2.060000000     0.377000000     0.874000000
C    -0.731000000     0.988000000    -0.709000000
H    -1.398000000     1.730000000    -1.140000000
C     0.575000000     0.786000000    -1.182000000
H     0.916000000     1.294000000    -2.081000000
C     1.431000000    -0.135000000    -0.558000000
C     2.865000000    -0.411000000    -1.056000000
O     3.660000000    -1.010000000    -0.346000000
O     3.208000000     0.173000000    -2.066000000
