14
-73.14349
C    -0.251000000    -0.169000000     1.424000000
H    -0.401000000    -0.020000000     2.490000000
C     0.409000000     0.927000000     0.807000000
H     0.943000000     1.748000000     1.279000000
C     0.574000000     0.893000000    -0.586000000
H     1.166000000     1.720000000    -1.000000000
C    -0.031000000    -0.054000000    -1.339000000
H    -0.046000000    -0.145000000    -2.422000000
C    -0.591000000    -1.142000000    -0.661000000
H    -0.715000000    -2.034000000    -1.269000000
C    -0.746000000    -1.199000000     0.720000000
C    -1.505000000    -2.337000000     1.339000000
O    -2.089000000    -3.191000000     0.737000000
O    -1.564000000    -2.505000000     2.555000000
