14
-90.95049
C     1.491000000    -0.039000000    -0.088000000
H     2.571000000    -0.104000000    -0.201000000
C     0.725000000    -0.716000000     0.855000000
H     1.100000000    -1.326000000     1.672000000
C    -0.699000000    -0.573000000     0.877000000
H    -1.276000000    -1.140000000     1.577000000
C    -1.322000000     0.237000000    -0.127000000
H    -2.407000000     0.302000000    -0.143000000
C    -0.528000000     0.957000000    -1.071000000
H    -0.967000000     1.576000000    -1.849000000
C     0.869000000     0.748000000    -1.028000000
C     1.710000000     1.270000000    -2.198000000
O     2.911000000     1.046000000    -2.284000000
O     1.099000000     1.774000000    -3.134000000
