14
-78.26347
C    -0.019000000     0.507000000    -1.397000000
H    -0.075000000     0.752000000    -2.454000000
C    -0.077000000    -0.818000000    -1.026000000
H    -0.162000000    -1.470000000    -1.891000000
C    -0.089000000    -1.216000000     0.290000000
H    -0.115000000    -2.175000000     0.626000000
C     0.171000000    -0.229000000     1.232000000
H     0.279000000    -0.654000000     2.227000000
C     0.168000000     1.107000000     0.914000000
H     0.256000000     1.814000000     1.735000000
C     0.083000000     1.535000000    -0.423000000
C     0.102000000     3.032000000    -0.810000000
O    -0.119000000     3.419000000    -1.907000000
O     0.363000000     3.855000000     0.018000000
