14
-88.30717
C     0.041000000     0.205000000    -1.471000000
H     0.132000000     0.365000000    -2.542000000
C     0.772000000    -0.757000000    -0.790000000
H     1.490000000    -1.427000000    -1.257000000
C     0.613000000    -0.827000000     0.612000000
H     1.227000000    -1.543000000     1.158000000
C    -0.202000000     0.019000000     1.324000000
H    -0.258000000    -0.101000000     2.403000000
C    -0.810000000     1.078000000     0.601000000
H    -1.281000000     1.852000000     1.202000000
C    -0.709000000     1.144000000    -0.837000000
C    -1.630000000     2.056000000    -1.619000000
O    -1.815000000     1.875000000    -2.796000000
O    -2.139000000     2.986000000    -1.003000000
