14
-87.31625
C     0.224000000     0.205000000    -1.489000000
H     0.265000000     0.146000000    -2.574000000
C     0.145000000    -1.041000000    -0.837000000
H     0.326000000    -1.994000000    -1.328000000
C    -0.069000000    -1.077000000     0.547000000
H    -0.042000000    -1.986000000     1.212000000
C    -0.257000000     0.086000000     1.268000000
H    -0.275000000     0.081000000     2.354000000
C    -0.086000000     1.326000000     0.630000000
H    -0.195000000     2.189000000     1.283000000
C     0.082000000     1.405000000    -0.737000000
C     0.210000000     2.799000000    -1.385000000
O     0.570000000     2.779000000    -2.535000000
O     0.273000000     3.825000000    -0.674000000
