14
-86.16169
C    -0.514000000    -0.640000000    -1.166000000
H    -0.734000000    -1.259000000    -2.032000000
C     0.231000000    -1.251000000    -0.218000000
H     0.639000000    -2.243000000    -0.393000000
C     0.715000000    -0.520000000     0.855000000
H     1.501000000    -0.981000000     1.534000000
C     0.428000000     0.848000000     0.928000000
H     0.916000000     1.387000000     1.736000000
C    -0.521000000     1.452000000     0.117000000
H    -0.832000000     2.491000000     0.189000000
C    -0.944000000     0.690000000    -1.015000000
C    -1.916000000     1.269000000    -2.072000000
O    -2.382000000     0.470000000    -2.910000000
O    -2.343000000     2.389000000    -2.013000000
