14
-85.74561
C    -0.674000000    -1.129000000    -0.774000000
H    -1.109000000    -2.014000000    -1.231000000
C     0.613000000    -1.151000000    -0.102000000
H     1.141000000    -2.100000000    -0.072000000
C     1.097000000    -0.026000000     0.596000000
H     2.049000000    -0.024000000     1.095000000
C     0.311000000     1.101000000     0.636000000
H     0.673000000     1.905000000     1.272000000
C    -0.878000000     1.137000000    -0.059000000
H    -1.545000000     1.996000000    -0.039000000
C    -1.355000000     0.078000000    -0.835000000
C    -2.628000000     0.186000000    -1.584000000
O    -2.993000000    -0.737000000    -2.245000000
O    -3.158000000     1.269000000    -1.656000000
