14
-89.59085
C    -0.872000000    -1.035000000    -0.647000000
H    -1.445000000    -1.787000000    -1.183000000
C     0.413000000    -1.237000000    -0.166000000
H     0.890000000    -2.209000000    -0.266000000
C     1.124000000    -0.243000000     0.462000000
H     2.137000000    -0.461000000     0.817000000
C     0.583000000     1.016000000     0.612000000
H     1.140000000     1.866000000     0.997000000
C    -0.699000000     1.264000000     0.073000000
H    -1.079000000     2.283000000     0.077000000
C    -1.466000000     0.255000000    -0.524000000
C    -2.822000000     0.500000000    -1.163000000
O    -3.146000000    -0.291000000    -2.033000000
O    -3.408000000     1.571000000    -1.094000000
