14
-84.29950
C    -0.644000000    -0.526000000    -1.255000000
H    -0.900000000    -0.938000000    -2.228000000
C     0.514000000    -1.002000000    -0.692000000
H     1.037000000    -1.802000000    -1.210000000
C     0.968000000    -0.550000000     0.554000000
H     1.801000000    -1.033000000     1.043000000
C     0.252000000     0.467000000     1.182000000
H     0.548000000     0.881000000     2.143000000
C    -0.889000000     1.112000000     0.551000000
H    -1.211000000     2.071000000     0.949000000
C    -1.299000000     0.623000000    -0.742000000
C    -2.479000000     1.302000000    -1.342000000
O    -2.933000000     0.764000000    -2.307000000
O    -2.863000000     2.390000000    -0.948000000
