14
-80.86914
C    -0.624000000     0.246000000    -1.330000000
H    -1.147000000     0.391000000    -2.271000000
C    -1.157000000    -0.527000000    -0.327000000
H    -2.045000000    -1.131000000    -0.496000000
C    -0.509000000    -0.645000000     0.912000000
H    -1.013000000    -1.114000000     1.664000000
C     0.675000000     0.039000000     1.132000000
H     1.287000000    -0.175000000     2.004000000
C     1.192000000     0.712000000     0.091000000
H     2.156000000     1.189000000     0.247000000
C     0.623000000     0.888000000    -1.119000000
C     1.288000000     1.589000000    -2.245000000
O     0.917000000     1.314000000    -3.361000000
O     2.246000000     2.313000000    -2.110000000
