14
-79.33913
C    -0.518000000    -0.955000000    -1.035000000
H    -0.815000000    -1.741000000    -1.725000000
C     0.172000000    -1.215000000     0.082000000
H     0.447000000    -2.259000000     0.204000000
C     0.535000000    -0.268000000     1.051000000
H     1.020000000    -0.557000000     1.964000000
C     0.179000000     1.050000000     0.819000000
H     0.431000000     1.699000000     1.654000000
C    -0.535000000     1.347000000    -0.284000000
H    -0.801000000     2.389000000    -0.441000000
C    -0.878000000     0.382000000    -1.266000000
C    -1.468000000     0.777000000    -2.604000000
O    -1.806000000    -0.061000000    -3.418000000
O    -1.328000000     1.895000000    -2.991000000
