14
-84.07524
C    -0.490000000     0.072000000    -1.434000000
H    -0.831000000     0.113000000    -2.466000000
C    -1.223000000    -0.416000000    -0.409000000
H    -2.265000000    -0.723000000    -0.464000000
C    -0.688000000    -0.429000000     0.896000000
H    -1.385000000    -0.637000000     1.738000000
C     0.599000000    -0.028000000     1.155000000
H     1.063000000    -0.156000000     2.130000000
C     1.409000000     0.503000000     0.089000000
H     2.447000000     0.775000000     0.263000000
C     0.840000000     0.477000000    -1.225000000
C     1.665000000     1.067000000    -2.305000000
O     1.200000000     1.592000000    -3.325000000
O     2.861000000     0.988000000    -2.247000000
