14
-87.82001
C    -0.374000000     0.731000000    -1.177000000
H    -0.691000000     1.345000000    -2.017000000
C    -1.237000000    -0.044000000    -0.391000000
H    -2.264000000    -0.303000000    -0.635000000
C    -0.739000000    -0.735000000     0.691000000
H    -1.390000000    -1.323000000     1.327000000
C     0.618000000    -0.768000000     0.942000000
H     1.059000000    -1.331000000     1.760000000
C     1.468000000    -0.013000000     0.073000000
H     2.509000000     0.041000000     0.381000000
C     0.973000000     0.809000000    -0.897000000
C     1.777000000     1.911000000    -1.649000000
O     1.274000000     2.594000000    -2.515000000
O     2.919000000     2.125000000    -1.276000000
