14
-87.82484
C    -0.604000000     0.061000000    -1.353000000
H    -1.068000000     0.167000000    -2.330000000
C    -1.318000000     0.007000000    -0.159000000
H    -2.398000000    -0.023000000    -0.279000000
C    -0.692000000    -0.005000000     1.023000000
H    -1.293000000    -0.073000000     1.900000000
C     0.716000000    -0.087000000     1.076000000
H     1.175000000    -0.183000000     2.056000000
C     1.478000000     0.012000000    -0.076000000
H     2.560000000    -0.083000000    -0.044000000
C     0.806000000     0.114000000    -1.315000000
C     1.642000000     0.097000000    -2.584000000
O     1.140000000     0.095000000    -3.665000000
O     2.866000000     0.112000000    -2.498000000
