14
-82.17431
C    -0.777000000     0.726000000    -0.972000000
H    -1.459000000     1.385000000    -1.502000000
C    -1.298000000    -0.001000000     0.070000000
H    -2.375000000     0.006000000     0.217000000
C    -0.442000000    -0.703000000     0.886000000
H    -0.955000000    -1.279000000     1.716000000
C     0.922000000    -0.685000000     0.723000000
H     1.501000000    -1.255000000     1.444000000
C     1.476000000     0.053000000    -0.368000000
H     2.549000000     0.170000000    -0.498000000
C     0.598000000     0.817000000    -1.161000000
C     1.146000000     1.790000000    -2.200000000
O     0.396000000     2.572000000    -2.687000000
O     2.312000000     1.903000000    -2.438000000
