14
-88.45044
C     0.762000000     1.103000000    -0.635000000
H     1.260000000     2.014000000    -0.955000000
C     0.172000000     1.123000000     0.624000000
H     0.135000000     2.024000000     1.231000000
C    -0.602000000     0.066000000     1.087000000
H    -1.079000000     0.115000000     2.052000000
C    -0.687000000    -1.123000000     0.351000000
H    -1.167000000    -2.030000000     0.710000000
C     0.004000000    -1.164000000    -0.891000000
H    -0.017000000    -2.102000000    -1.440000000
C     0.779000000    -0.103000000    -1.369000000
C     1.491000000    -0.103000000    -2.736000000
O     2.052000000     0.868000000    -3.143000000
O     1.497000000    -1.113000000    -3.448000000
