14
-93.16908
C     0.993000000     1.116000000     0.117000000
H     1.678000000     1.940000000     0.301000000
C     0.011000000     0.737000000     1.051000000
H    -0.151000000     1.283000000     1.977000000
C    -0.848000000    -0.323000000     0.866000000
H    -1.557000000    -0.618000000     1.615000000
C    -0.708000000    -1.064000000    -0.317000000
H    -1.348000000    -1.927000000    -0.481000000
C     0.254000000    -0.742000000    -1.299000000
H     0.276000000    -1.331000000    -2.212000000
C     1.112000000     0.352000000    -1.056000000
C     2.066000000     0.771000000    -2.226000000
O     2.800000000     1.736000000    -2.168000000
O     2.052000000     0.046000000    -3.216000000
