14
-80.66772
C    -0.064000000     1.178000000     0.923000000
H    -0.382000000     2.098000000     1.408000000
C    -1.010000000     0.137000000     0.975000000
H    -1.913000000     0.192000000     1.578000000
C    -0.789000000    -0.930000000     0.103000000
H    -1.344000000    -1.788000000     0.001000000
C     0.400000000    -1.012000000    -0.591000000
H     0.645000000    -1.889000000    -1.185000000
C     1.286000000     0.024000000    -0.689000000
H     2.026000000     0.021000000    -1.484000000
C     1.028000000     1.176000000     0.028000000
C     1.856000000     2.444000000    -0.206000000
O     1.497000000     3.578000000     0.232000000
O     2.723000000     2.356000000    -0.996000000
