14
-76.83416
C    -0.676000000     1.332000000    -0.199000000
H    -1.303000000     2.216000000    -0.277000000
C    -1.271000000     0.095000000     0.115000000
H    -2.350000000    -0.033000000     0.109000000
C    -0.542000000    -1.055000000     0.159000000
H    -1.127000000    -1.974000000     0.331000000
C     0.820000000    -1.019000000     0.059000000
H     1.346000000    -1.955000000     0.227000000
C     1.465000000     0.200000000    -0.105000000
H     2.549000000     0.282000000    -0.106000000
C     0.750000000     1.424000000    -0.266000000
C     1.467000000     2.692000000    -0.470000000
O     0.936000000     3.609000000    -1.040000000
O     2.625000000     2.667000000    -0.330000000
