14
-86.30636
C     0.450000000    -0.780000000     1.158000000
H     0.844000000    -1.330000000     2.009000000
C     1.207000000     0.246000000     0.526000000
H     2.157000000     0.530000000     0.973000000
C     0.725000000     0.891000000    -0.572000000
H     1.331000000     1.685000000    -1.115000000
C    -0.641000000     0.582000000    -0.938000000
H    -1.039000000     1.047000000    -1.837000000
C    -1.445000000    -0.348000000    -0.286000000
H    -2.463000000    -0.546000000    -0.613000000
C    -0.848000000    -1.117000000     0.703000000
C    -1.628000000    -2.267000000     1.382000000
O    -2.629000000    -2.803000000     0.928000000
O    -1.166000000    -2.764000000     2.401000000
