14
-86.60990
C     1.060000000     0.661000000    -0.711000000
H     1.959000000     1.171000000    -1.050000000
C     0.289000000     1.241000000     0.282000000
H     0.420000000     2.228000000     0.717000000
C    -0.741000000     0.472000000     0.795000000
H    -1.193000000     0.765000000     1.767000000
C    -1.015000000    -0.817000000     0.359000000
H    -1.850000000    -1.367000000     0.785000000
C    -0.258000000    -1.366000000    -0.661000000
H    -0.416000000    -2.399000000    -0.958000000
C     0.798000000    -0.609000000    -1.168000000
C     1.829000000    -1.281000000    -2.069000000
O     2.874000000    -0.719000000    -2.446000000
O     1.631000000    -2.423000000    -2.290000000
