14
-87.37695
C     1.024000000    -0.489000000     0.960000000
H     1.831000000    -0.749000000     1.641000000
C     1.262000000     0.379000000    -0.105000000
H     2.266000000     0.721000000    -0.341000000
C     0.216000000     0.759000000    -0.893000000
H     0.384000000     1.591000000    -1.646000000
C    -1.032000000     0.312000000    -0.653000000
H    -1.819000000     0.679000000    -1.307000000
C    -1.320000000    -0.560000000     0.385000000
H    -2.349000000    -0.870000000     0.549000000
C    -0.302000000    -0.938000000     1.256000000
C    -0.706000000    -2.004000000     2.323000000
O    -1.818000000    -2.097000000     2.763000000
O     0.215000000    -2.696000000     2.720000000
