14
-81.47538
C     0.657000000     0.613000000    -1.177000000
H     0.976000000     1.194000000    -2.038000000
C     0.185000000     1.262000000    -0.028000000
H     0.276000000     2.340000000     0.077000000
C    -0.417000000     0.581000000     0.970000000
H    -0.773000000     1.137000000     1.788000000
C    -0.564000000    -0.783000000     0.914000000
H    -1.042000000    -1.403000000     1.668000000
C    -0.060000000    -1.475000000    -0.145000000
H    -0.237000000    -2.546000000    -0.210000000
C     0.486000000    -0.783000000    -1.250000000
C     0.822000000    -1.486000000    -2.493000000
O     1.811000000    -1.203000000    -3.143000000
O    -0.043000000    -2.127000000    -3.102000000
