14
-83.52901
C     0.753000000     0.611000000    -1.141000000
H     1.244000000     1.218000000    -1.898000000
C     0.491000000     1.231000000     0.139000000
H     0.752000000     2.247000000     0.423000000
C    -0.249000000     0.519000000     1.082000000
H    -0.502000000     1.054000000     1.983000000
C    -0.659000000    -0.762000000     0.819000000
H    -1.242000000    -1.206000000     1.621000000
C    -0.467000000    -1.328000000    -0.495000000
H    -0.771000000    -2.361000000    -0.645000000
C     0.354000000    -0.708000000    -1.434000000
C     0.523000000    -1.309000000    -2.782000000
O     1.025000000    -0.582000000    -3.617000000
O     0.063000000    -2.380000000    -3.122000000
