14
-79.11449
C     1.380000000     0.414000000     0.309000000
H     2.377000000     0.803000000     0.497000000
C     0.277000000     1.209000000     0.419000000
H     0.484000000     2.216000000     0.772000000
C    -0.996000000     0.723000000     0.071000000
H    -1.774000000     1.423000000     0.070000000
C    -1.101000000    -0.541000000    -0.445000000
H    -2.041000000    -1.007000000    -0.728000000
C    -0.013000000    -1.352000000    -0.554000000
H    -0.226000000    -2.404000000    -0.729000000
C     1.245000000    -0.877000000    -0.091000000
C     2.373000000    -1.802000000    -0.074000000
O     3.518000000    -1.445000000     0.197000000
O     2.246000000    -3.000000000    -0.245000000
