14
-86.28425
C     1.079000000     0.675000000    -0.739000000
H     1.779000000     1.251000000    -1.338000000
C     0.214000000     1.327000000     0.163000000
H     0.324000000     2.376000000     0.425000000
C    -0.829000000     0.575000000     0.776000000
H    -1.477000000     1.021000000     1.485000000
C    -0.986000000    -0.792000000     0.443000000
H    -1.725000000    -1.413000000     0.943000000
C    -0.102000000    -1.420000000    -0.490000000
H    -0.073000000    -2.460000000    -0.803000000
C     0.912000000    -0.680000000    -1.091000000
C     1.845000000    -1.287000000    -2.102000000
O     2.716000000    -0.563000000    -2.538000000
O     1.797000000    -2.415000000    -2.488000000
