14
-88.85828
C     0.998000000     0.633000000    -0.875000000
H     1.586000000     1.209000000    -1.585000000
C     0.366000000     1.348000000     0.126000000
H     0.559000000     2.415000000     0.193000000
C    -0.669000000     0.686000000     0.819000000
H    -1.330000000     1.261000000     1.470000000
C    -0.880000000    -0.634000000     0.544000000
H    -1.625000000    -1.192000000     1.104000000
C    -0.171000000    -1.393000000    -0.340000000
H    -0.420000000    -2.448000000    -0.430000000
C     0.853000000    -0.771000000    -1.052000000
C     1.651000000    -1.568000000    -2.145000000
O     2.519000000    -0.923000000    -2.787000000
O     1.451000000    -2.740000000    -2.300000000
