14
-86.10910
C     1.338000000    -0.305000000     0.605000000
H     2.214000000    -0.330000000     1.248000000
C     0.618000000     0.892000000     0.657000000
H     1.012000000     1.650000000     1.329000000
C    -0.627000000     1.089000000    -0.035000000
H    -1.172000000     2.029000000     0.022000000
C    -1.019000000    -0.016000000    -0.778000000
H    -1.974000000     0.174000000    -1.262000000
C    -0.294000000    -1.187000000    -0.833000000
H    -0.773000000    -1.990000000    -1.387000000
C     0.848000000    -1.415000000    -0.110000000
C     1.574000000    -2.775000000    -0.123000000
O     2.628000000    -2.938000000     0.443000000
O     1.018000000    -3.717000000    -0.644000000
