14
-81.74677
C     1.168000000     0.454000000     0.889000000
H     1.881000000     0.952000000     1.541000000
C     0.617000000     1.129000000    -0.211000000
H     0.979000000     2.098000000    -0.545000000
C    -0.417000000     0.609000000    -0.953000000
H    -0.785000000     1.096000000    -1.922000000
C    -0.902000000    -0.666000000    -0.656000000
H    -1.750000000    -0.945000000    -1.275000000
C    -0.301000000    -1.392000000     0.401000000
H    -0.820000000    -2.310000000     0.665000000
C     0.582000000    -0.760000000     1.304000000
C     1.337000000    -1.613000000     2.296000000
O     1.868000000    -0.949000000     3.171000000
O     1.304000000    -2.814000000     2.267000000
