14
-89.13640
C     1.059000000     0.393000000     0.994000000
H     1.810000000     0.708000000     1.714000000
C     0.578000000     1.172000000    -0.069000000
H     1.021000000     2.155000000    -0.205000000
C    -0.436000000     0.740000000    -0.903000000
H    -0.749000000     1.370000000    -1.797000000
C    -1.030000000    -0.538000000    -0.654000000
H    -1.792000000    -0.945000000    -1.314000000
C    -0.571000000    -1.307000000     0.468000000
H    -0.985000000    -2.288000000     0.687000000
C     0.497000000    -0.792000000     1.216000000
C     1.088000000    -1.812000000     2.174000000
O     1.599000000    -1.326000000     3.172000000
O     0.989000000    -3.016000000     1.957000000
