14
-90.47778
C     0.172000000    -0.451000000     1.395000000
H     0.553000000    -0.740000000     2.371000000
C     0.535000000     0.849000000     0.897000000
H     1.081000000     1.474000000     1.598000000
C     0.257000000     1.163000000    -0.411000000
H     0.493000000     2.122000000    -0.825000000
C    -0.496000000     0.290000000    -1.180000000
H    -0.592000000     0.488000000    -2.244000000
C    -0.806000000    -1.013000000    -0.762000000
H    -1.281000000    -1.711000000    -1.447000000
C    -0.481000000    -1.392000000     0.538000000
C    -0.717000000    -2.872000000     1.044000000
O    -0.430000000    -3.267000000     2.150000000
O    -1.208000000    -3.598000000     0.169000000
