14
-81.53269
C    -0.058000000    -0.572000000     1.283000000
H     0.042000000    -0.982000000     2.285000000
C     0.495000000     0.631000000     0.936000000
H     0.847000000     1.218000000     1.781000000
C     0.444000000     1.153000000    -0.289000000
H     0.759000000     2.186000000    -0.525000000
C    -0.061000000     0.334000000    -1.313000000
H    -0.077000000     0.729000000    -2.325000000
C    -0.489000000    -1.021000000    -0.980000000
H    -0.930000000    -1.623000000    -1.770000000
C    -0.568000000    -1.437000000     0.354000000
C    -1.088000000    -2.801000000     0.795000000
O    -1.191000000    -3.133000000     1.959000000
O    -1.502000000    -3.512000000    -0.074000000
