14
-92.12465
C    -0.202000000    -0.147000000     1.436000000
H    -0.399000000    -0.149000000     2.505000000
C     0.035000000     1.114000000     0.829000000
H    -0.040000000     2.064000000     1.351000000
C     0.232000000     1.074000000    -0.560000000
H     0.339000000     2.030000000    -1.101000000
C     0.249000000    -0.150000000    -1.248000000
H     0.356000000    -0.152000000    -2.330000000
C     0.066000000    -1.349000000    -0.631000000
H     0.088000000    -2.276000000    -1.197000000
C    -0.265000000    -1.364000000     0.714000000
C    -0.461000000    -2.654000000     1.457000000
O    -0.459000000    -2.641000000     2.666000000
O    -0.605000000    -3.723000000     0.815000000
