14
-83.13856
C     0.070000000    -0.497000000     1.410000000
H     0.097000000    -0.714000000     2.475000000
C     0.245000000     0.802000000     1.031000000
H     0.674000000     1.529000000     1.716000000
C     0.117000000     1.130000000    -0.283000000
H     0.394000000     2.129000000    -0.569000000
C    -0.099000000     0.250000000    -1.293000000
H    -0.158000000     0.664000000    -2.296000000
C    -0.308000000    -1.067000000    -0.905000000
H    -0.528000000    -1.787000000    -1.690000000
C    -0.196000000    -1.478000000     0.430000000
C    -0.400000000    -2.909000000     0.793000000
O    -0.324000000    -3.130000000     1.999000000
O    -0.670000000    -3.753000000     0.010000000
