14
-78.30002
C    -0.313000000    -0.206000000     1.529000000
H    -0.588000000    -0.131000000     2.578000000
C     0.107000000     1.003000000     0.931000000
H     0.342000000     1.886000000     1.520000000
C     0.430000000     1.074000000    -0.456000000
H     0.898000000     1.899000000    -0.984000000
C     0.152000000    -0.020000000    -1.222000000
H     0.422000000     0.189000000    -2.254000000
C    -0.316000000    -1.234000000    -0.695000000
H    -0.703000000    -1.912000000    -1.452000000
C    -0.516000000    -1.373000000     0.715000000
C    -1.053000000    -2.666000000     1.252000000
O    -1.424000000    -2.733000000     2.406000000
O    -1.272000000    -3.599000000     0.536000000
