14
-84.52632
C    -0.267000000    -0.666000000     1.344000000
H    -0.548000000    -0.965000000     2.351000000
C     0.201000000     0.640000000     1.115000000
H     0.408000000     1.328000000     1.931000000
C     0.408000000     1.173000000    -0.167000000
H     0.711000000     2.254000000    -0.211000000
C     0.098000000     0.359000000    -1.335000000
H     0.150000000     0.738000000    -2.352000000
C    -0.283000000    -1.018000000    -1.057000000
H    -0.467000000    -1.691000000    -1.891000000
C    -0.587000000    -1.438000000     0.218000000
C    -1.059000000    -2.915000000     0.429000000
O    -1.488000000    -3.220000000     1.513000000
O    -1.150000000    -3.707000000    -0.496000000
