14
-87.52283
C    -0.504000000     0.793000000     1.142000000
H    -0.846000000     1.383000000     1.989000000
C    -0.107000000     1.342000000    -0.127000000
H    -0.086000000     2.407000000    -0.345000000
C     0.287000000     0.464000000    -1.098000000
H     0.365000000     0.795000000    -2.088000000
C     0.493000000    -0.895000000    -0.821000000
H     0.887000000    -1.482000000    -1.647000000
C     0.123000000    -1.425000000     0.411000000
H     0.294000000    -2.472000000     0.648000000
C    -0.518000000    -0.581000000     1.320000000
C    -1.073000000    -1.095000000     2.609000000
O    -1.376000000    -0.366000000     3.540000000
O    -1.349000000    -2.301000000     2.730000000
