14
-92.16566
C     0.868000000    -0.837000000     0.927000000
H     1.590000000    -1.293000000     1.600000000
C     1.256000000     0.216000000     0.108000000
H     2.296000000     0.485000000    -0.060000000
C     0.386000000     0.930000000    -0.689000000
H     0.685000000     1.840000000    -1.166000000
C    -0.924000000     0.576000000    -0.724000000
H    -1.628000000     1.129000000    -1.341000000
C    -1.348000000    -0.528000000     0.037000000
H    -2.384000000    -0.859000000     0.037000000
C    -0.464000000    -1.223000000     0.871000000
C    -0.974000000    -2.381000000     1.731000000
O    -0.264000000    -2.855000000     2.605000000
O    -2.093000000    -2.805000000     1.505000000
