14
-81.63326
C     0.094000000     0.678000000     1.309000000
H     0.141000000     1.351000000     2.162000000
C     0.194000000     1.269000000     0.064000000
H     0.358000000     2.318000000    -0.170000000
C     0.197000000     0.489000000    -1.069000000
H     0.373000000     0.940000000    -1.993000000
C     0.019000000    -0.892000000    -1.006000000
H    -0.086000000    -1.506000000    -1.897000000
C    -0.091000000    -1.465000000     0.244000000
H    -0.375000000    -2.514000000     0.244000000
C    -0.101000000    -0.667000000     1.442000000
C    -0.335000000    -1.222000000     2.796000000
O    -0.638000000    -0.398000000     3.693000000
O    -0.537000000    -2.373000000     3.030000000
