14
-87.98295
C    -1.038000000     0.918000000     0.618000000
H    -1.740000000     1.677000000     0.954000000
C    -0.080000000     1.313000000    -0.314000000
H    -0.126000000     2.290000000    -0.789000000
C     0.787000000     0.360000000    -0.813000000
H     1.422000000     0.607000000    -1.662000000
C     0.910000000    -0.875000000    -0.262000000
H     1.590000000    -1.591000000    -0.718000000
C     0.033000000    -1.252000000     0.780000000
H     0.168000000    -2.260000000     1.162000000
C    -0.967000000    -0.398000000     1.204000000
C    -1.974000000    -0.847000000     2.207000000
O    -2.698000000     0.026000000     2.674000000
O    -1.987000000    -1.956000000     2.717000000
