14
-82.04611
C    -0.838000000     0.816000000     0.819000000
H    -1.407000000     1.453000000     1.491000000
C    -0.033000000     1.279000000    -0.180000000
H     0.028000000     2.337000000    -0.420000000
C     0.651000000     0.379000000    -0.989000000
H     1.353000000     0.627000000    -1.852000000
C     0.609000000    -0.920000000    -0.698000000
H     1.284000000    -1.547000000    -1.276000000
C    -0.193000000    -1.487000000     0.337000000
H    -0.180000000    -2.544000000     0.589000000
C    -0.866000000    -0.539000000     1.169000000
C    -1.813000000    -1.059000000     2.261000000
O    -2.600000000    -0.336000000     2.793000000
O    -1.589000000    -2.166000000     2.713000000
