14
-93.90672
C    -0.888000000     0.666000000     0.957000000
H    -1.535000000     1.216000000     1.636000000
C     0.132000000     1.310000000     0.229000000
H     0.213000000     2.394000000     0.213000000
C     0.864000000     0.563000000    -0.657000000
H     1.554000000     1.087000000    -1.306000000
C     0.730000000    -0.828000000    -0.784000000
H     1.306000000    -1.383000000    -1.521000000
C    -0.235000000    -1.471000000    -0.024000000
H    -0.374000000    -2.538000000    -0.176000000
C    -1.120000000    -0.720000000     0.818000000
C    -2.083000000    -1.418000000     1.766000000
O    -2.362000000    -0.832000000     2.841000000
O    -2.354000000    -2.615000000     1.540000000
