14
-82.11088
C    -0.842000000    -0.049000000     1.235000000
H    -1.310000000     0.086000000     2.206000000
C    -0.011000000     1.008000000     0.806000000
H     0.099000000     1.960000000     1.319000000
C     0.723000000     0.862000000    -0.374000000
H     1.374000000     1.626000000    -0.771000000
C     0.603000000    -0.290000000    -1.133000000
H     1.227000000    -0.358000000    -2.020000000
C    -0.221000000    -1.300000000    -0.772000000
H    -0.299000000    -2.242000000    -1.307000000
C    -0.909000000    -1.187000000     0.444000000
C    -1.943000000    -2.186000000     0.880000000
O    -2.696000000    -1.880000000     1.753000000
O    -1.793000000    -3.321000000     0.557000000
