14
-83.40807
C     0.661000000    -0.566000000     1.162000000
H     1.277000000    -0.872000000     2.003000000
C     1.329000000     0.170000000     0.167000000
H     2.404000000     0.292000000     0.268000000
C     0.582000000     0.653000000    -0.895000000
H     1.016000000     1.286000000    -1.620000000
C    -0.823000000     0.395000000    -0.966000000
H    -1.328000000     0.916000000    -1.776000000
C    -1.458000000    -0.412000000     0.000000000
H    -2.522000000    -0.607000000    -0.102000000
C    -0.724000000    -0.905000000     1.070000000
C    -1.349000000    -1.750000000     2.117000000
O    -2.504000000    -2.213000000     2.077000000
O    -0.828000000    -2.003000000     3.217000000
