14
-80.01427
C    -1.203000000     0.471000000     0.826000000
H    -2.069000000     0.917000000     1.308000000
C    -0.121000000     1.251000000     0.388000000
H    -0.124000000     2.318000000     0.596000000
C     0.953000000     0.693000000    -0.369000000
H     1.828000000     1.211000000    -0.735000000
C     0.955000000    -0.645000000    -0.616000000
H     1.806000000    -1.060000000    -1.150000000
C    -0.124000000    -1.453000000    -0.206000000
H    -0.073000000    -2.473000000    -0.578000000
C    -1.204000000    -0.895000000     0.567000000
C    -2.446000000    -1.740000000     0.772000000
O    -3.554000000    -1.253000000     1.084000000
O    -2.522000000    -2.878000000     0.411000000
