14
-91.85903
C    -1.105000000     0.353000000     0.934000000
H    -1.935000000     0.675000000     1.558000000
C    -0.142000000     1.242000000     0.501000000
H    -0.214000000     2.308000000     0.697000000
C     0.852000000     0.834000000    -0.397000000
H     1.654000000     1.555000000    -0.871000000
C     0.956000000    -0.545000000    -0.721000000
H     1.737000000    -0.935000000    -1.369000000
C     0.011000000    -1.420000000    -0.214000000
H     0.002000000    -2.440000000    -0.591000000
C    -1.040000000    -1.012000000     0.586000000
C    -2.070000000    -2.064000000     1.034000000
O    -3.065000000    -1.765000000     1.702000000
O    -1.765000000    -3.262000000     0.824000000
