14
-80.21920
C    -0.096000000    -0.588000000     1.399000000
H    -0.085000000    -0.995000000     2.407000000
C     0.542000000     0.619000000     1.065000000
H     0.908000000     1.208000000     1.902000000
C     0.536000000     1.116000000    -0.270000000
H     0.960000000     2.032000000    -0.376000000
C    -0.147000000     0.366000000    -1.204000000
H    -0.230000000     0.745000000    -2.219000000
C    -0.653000000    -0.865000000    -0.946000000
H    -1.107000000    -1.388000000    -1.783000000
C    -0.584000000    -1.394000000     0.351000000
C    -1.081000000    -2.846000000     0.581000000
O    -1.009000000    -3.458000000     1.634000000
O    -1.414000000    -3.525000000    -0.359000000
