14
-83.19282
C     0.265000000    -0.554000000     1.374000000
H     0.456000000    -0.855000000     2.401000000
C     0.285000000     0.798000000     0.968000000
H     0.538000000     1.607000000     1.649000000
C    -0.025000000     1.244000000    -0.300000000
H     0.004000000     2.334000000    -0.509000000
C    -0.375000000     0.264000000    -1.249000000
H    -0.630000000     0.609000000    -2.247000000
C    -0.175000000    -1.103000000    -0.949000000
H    -0.293000000    -1.810000000    -1.767000000
C     0.006000000    -1.529000000     0.359000000
C    -0.088000000    -3.022000000     0.787000000
O     0.481000000    -3.484000000     1.712000000
O    -0.657000000    -3.758000000     0.008000000
