14
-82.13557
C    -0.554000000    -1.014000000     0.909000000
H    -0.819000000    -1.681000000     1.725000000
C    -0.285000000     0.299000000     1.242000000
H    -0.359000000     0.590000000     2.287000000
C     0.151000000     1.198000000     0.319000000
H     0.494000000     2.116000000     0.676000000
C     0.357000000     0.806000000    -0.963000000
H     0.840000000     1.460000000    -1.685000000
C     0.080000000    -0.543000000    -1.329000000
H     0.289000000    -0.883000000    -2.340000000
C    -0.369000000    -1.475000000    -0.398000000
C    -0.514000000    -2.939000000    -0.819000000
O    -0.585000000    -3.759000000     0.033000000
O    -0.850000000    -3.295000000    -1.977000000
