14
-85.93563
C     0.933000000    -0.671000000     0.865000000
H     1.749000000    -1.075000000     1.459000000
C     1.242000000     0.431000000     0.087000000
H     2.219000000     0.908000000     0.072000000
C     0.227000000     0.866000000    -0.787000000
H     0.329000000     1.778000000    -1.294000000
C    -1.014000000     0.318000000    -0.809000000
H    -1.694000000     0.796000000    -1.510000000
C    -1.267000000    -0.769000000     0.015000000
H    -2.257000000    -1.219000000     0.016000000
C    -0.292000000    -1.275000000     0.868000000
C    -0.635000000    -2.231000000     1.974000000
O    -1.738000000    -2.663000000     2.128000000
O     0.285000000    -2.546000000     2.752000000
