14
-84.49250
C    -0.080000000    -0.962000000     1.237000000
H    -0.335000000    -1.572000000     2.100000000
C    -0.887000000     0.195000000     0.950000000
H    -1.758000000     0.475000000     1.536000000
C    -0.671000000     1.019000000    -0.156000000
H    -1.276000000     1.886000000    -0.239000000
C     0.285000000     0.644000000    -1.130000000
H     0.481000000     1.267000000    -1.999000000
C     1.094000000    -0.497000000    -0.886000000
H     1.863000000    -0.757000000    -1.609000000
C     0.923000000    -1.282000000     0.285000000
C     1.644000000    -2.560000000     0.387000000
O     1.167000000    -3.476000000     1.066000000
O     2.508000000    -2.922000000    -0.448000000
