14
-85.86461
C    -0.031000000    -1.240000000     0.771000000
H    -0.095000000    -2.148000000     1.365000000
C    -0.371000000    -0.013000000     1.303000000
H    -0.861000000     0.219000000     2.245000000
C    -0.240000000     1.108000000     0.468000000
H    -0.263000000     2.074000000     0.849000000
C     0.085000000     0.914000000    -0.882000000
H     0.243000000     1.736000000    -1.575000000
C     0.425000000    -0.318000000    -1.397000000
H     0.794000000    -0.384000000    -2.418000000
C     0.421000000    -1.415000000    -0.540000000
C     0.784000000    -2.762000000    -1.021000000
O     1.166000000    -3.673000000    -0.278000000
O     0.824000000    -2.960000000    -2.222000000
