14
-85.89203
C    -0.232000000    -0.339000000     1.405000000
H    -0.486000000    -0.431000000     2.458000000
C    -0.492000000     0.927000000     0.812000000
H    -0.998000000     1.649000000     1.447000000
C    -0.206000000     1.068000000    -0.561000000
H    -0.530000000     2.063000000    -1.029000000
C     0.362000000     0.029000000    -1.339000000
H     0.595000000     0.214000000    -2.385000000
C     0.602000000    -1.199000000    -0.717000000
H     0.968000000    -1.985000000    -1.372000000
C     0.280000000    -1.414000000     0.624000000
C     0.483000000    -2.730000000     1.329000000
O    -0.013000000    -2.855000000     2.425000000
O     1.030000000    -3.660000000     0.819000000
