14
-79.39201
C    -0.631000000    -0.497000000     1.276000000
H    -0.843000000    -0.750000000     2.312000000
C    -0.233000000     0.800000000     1.049000000
H    -0.377000000     1.510000000     1.859000000
C     0.244000000     1.186000000    -0.223000000
H     0.517000000     2.175000000    -0.421000000
C     0.364000000     0.241000000    -1.212000000
H     0.704000000     0.556000000    -2.196000000
C     0.016000000    -1.075000000    -0.951000000
H     0.154000000    -1.874000000    -1.675000000
C    -0.397000000    -1.504000000     0.326000000
C    -0.689000000    -2.961000000     0.603000000
O    -1.129000000    -3.345000000     1.673000000
O    -0.541000000    -3.846000000    -0.177000000
