14
-84.40246
C    -0.542000000    -1.003000000     0.967000000
H    -1.104000000    -1.768000000     1.496000000
C    -1.245000000     0.110000000     0.423000000
H    -2.289000000     0.363000000     0.590000000
C    -0.537000000     1.031000000    -0.348000000
H    -1.143000000     1.862000000    -0.595000000
C     0.793000000     0.863000000    -0.648000000
H     1.244000000     1.558000000    -1.352000000
C     1.477000000    -0.291000000    -0.148000000
H     2.460000000    -0.534000000    -0.544000000
C     0.799000000    -1.236000000     0.736000000
C     1.442000000    -2.508000000     1.127000000
O     0.653000000    -3.420000000     1.450000000
O     2.606000000    -2.713000000     0.951000000
