14
-91.27738
C    -0.272000000    -0.485000000     1.417000000
H    -0.702000000    -0.807000000     2.363000000
C    -1.192000000    -0.182000000     0.400000000
H    -2.260000000    -0.321000000     0.547000000
C    -0.837000000     0.333000000    -0.813000000
H    -1.567000000     0.569000000    -1.602000000
C     0.526000000     0.504000000    -1.087000000
H     0.808000000     0.879000000    -2.068000000
C     1.472000000     0.104000000    -0.144000000
H     2.497000000     0.332000000    -0.424000000
C     1.051000000    -0.436000000     1.091000000
C     2.063000000    -0.912000000     2.077000000
O     1.711000000    -1.799000000     2.868000000
O     3.251000000    -0.518000000     2.048000000
