14
-82.96432
C    -0.558000000    -0.832000000     1.153000000
H    -1.006000000    -1.363000000     1.989000000
C    -1.307000000    -0.033000000     0.241000000
H    -2.370000000     0.099000000     0.427000000
C    -0.681000000     0.667000000    -0.836000000
H    -1.351000000     1.289000000    -1.412000000
C     0.704000000     0.541000000    -1.019000000
H     1.319000000     1.062000000    -1.748000000
C     1.422000000    -0.231000000    -0.132000000
H     2.503000000    -0.313000000    -0.214000000
C     0.842000000    -0.980000000     0.902000000
C     1.724000000    -1.647000000     1.948000000
O     1.252000000    -2.135000000     2.941000000
O     2.899000000    -1.431000000     1.926000000
