14
-80.46415
C    -0.593000000    -0.955000000     1.062000000
H    -1.214000000    -1.561000000     1.717000000
C    -1.273000000    -0.027000000     0.223000000
H    -2.336000000     0.085000000     0.416000000
C    -0.665000000     0.797000000    -0.748000000
H    -1.184000000     1.487000000    -1.338000000
C     0.704000000     0.718000000    -0.743000000
H     1.334000000     1.277000000    -1.430000000
C     1.465000000    -0.064000000     0.054000000
H     2.550000000    -0.047000000    -0.016000000
C     0.796000000    -0.966000000     0.946000000
C     1.680000000    -1.952000000     1.713000000
O     1.182000000    -2.856000000     2.367000000
O     2.821000000    -1.641000000     1.972000000
