14
-86.40104
C    -0.683000000    -0.973000000     0.908000000
H    -1.366000000    -1.578000000     1.499000000
C    -1.181000000     0.199000000     0.433000000
H    -2.203000000     0.510000000     0.631000000
C    -0.515000000     1.000000000    -0.421000000
H    -0.993000000     1.897000000    -0.799000000
C     0.777000000     0.684000000    -0.730000000
H     1.228000000     1.360000000    -1.451000000
C     1.366000000    -0.476000000    -0.238000000
H     2.358000000    -0.775000000    -0.567000000
C     0.686000000    -1.307000000     0.661000000
C     1.242000000    -2.606000000     1.140000000
O     0.715000000    -3.243000000     2.048000000
O     2.321000000    -2.952000000     0.682000000
