14
-84.82416
C    -0.685000000    -1.001000000     0.792000000
H    -1.275000000    -1.601000000     1.479000000
C    -1.185000000     0.197000000     0.364000000
H    -2.089000000     0.648000000     0.765000000
C    -0.517000000     0.968000000    -0.528000000
H    -1.014000000     1.775000000    -1.031000000
C     0.790000000     0.603000000    -0.867000000
H     1.306000000     1.225000000    -1.594000000
C     1.397000000    -0.524000000    -0.287000000
H     2.434000000    -0.773000000    -0.500000000
C     0.646000000    -1.359000000     0.539000000
C     1.203000000    -2.649000000     1.131000000
O     0.641000000    -3.192000000     2.034000000
O     2.338000000    -3.000000000     0.857000000
