14
-83.17056
C     0.906000000    -1.127000000     0.027000000
H     1.703000000    -1.862000000     0.108000000
C     1.139000000    -0.025000000    -0.692000000
H     2.024000000    -0.038000000    -1.323000000
C     0.246000000     1.043000000    -0.634000000
H     0.539000000     2.029000000    -1.096000000
C    -0.897000000     0.973000000     0.134000000
H    -1.664000000     1.728000000    -0.016000000
C    -1.174000000    -0.219000000     0.827000000
H    -2.136000000    -0.261000000     1.333000000
C    -0.289000000    -1.293000000     0.788000000
C    -0.598000000    -2.576000000     1.586000000
O    -1.687000000    -2.688000000     2.105000000
O     0.171000000    -3.567000000     1.759000000
