14
-81.95865
C     0.355000000     0.308000000     1.422000000
H     0.954000000     0.669000000     2.254000000
C     0.069000000     1.220000000     0.384000000
H     0.078000000     2.275000000     0.648000000
C    -0.179000000     0.852000000    -0.865000000
H    -0.327000000     1.527000000    -1.688000000
C    -0.228000000    -0.544000000    -1.196000000
H    -0.585000000    -0.874000000    -2.168000000
C    -0.031000000    -1.480000000    -0.178000000
H    -0.132000000    -2.549000000    -0.348000000
C     0.273000000    -1.072000000     1.130000000
C     0.418000000    -2.073000000     2.200000000
O     0.183000000    -1.787000000     3.384000000
O     0.714000000    -3.235000000     1.986000000
