14
-83.97881
C     0.357000000     0.815000000     1.159000000
H     0.476000000     1.553000000     1.948000000
C    -0.098000000     1.319000000    -0.025000000
H    -0.359000000     2.357000000    -0.216000000
C    -0.227000000     0.464000000    -1.113000000
H    -0.516000000     0.935000000    -1.986000000
C     0.064000000    -0.868000000    -1.040000000
H    -0.150000000    -1.533000000    -1.872000000
C     0.528000000    -1.386000000     0.210000000
H     0.700000000    -2.441000000     0.407000000
C     0.671000000    -0.566000000     1.378000000
C     0.922000000    -1.115000000     2.706000000
O     0.762000000    -0.465000000     3.723000000
O     1.224000000    -2.284000000     2.731000000
