14
-89.96197
C    -0.132000000     1.432000000     0.520000000
H    -0.390000000     2.436000000     0.845000000
C    -0.918000000     0.774000000    -0.490000000
H    -1.809000000     1.271000000    -0.866000000
C    -0.641000000    -0.515000000    -0.948000000
H    -1.363000000    -1.009000000    -1.603000000
C     0.450000000    -1.210000000    -0.430000000
H     0.688000000    -2.230000000    -0.720000000
C     1.154000000    -0.654000000     0.621000000
H     1.995000000    -1.200000000     1.041000000
C     0.835000000     0.653000000     1.157000000
C     1.671000000     1.216000000     2.344000000
O     1.347000000     2.313000000     2.645000000
O     2.554000000     0.541000000     2.902000000
