14
-92.40200
C    -0.487000000     1.452000000    -0.075000000
H    -0.903000000     2.444000000    -0.232000000
C    -0.982000000     0.378000000    -0.792000000
H    -1.759000000     0.598000000    -1.519000000
C    -0.426000000    -0.909000000    -0.670000000
H    -0.755000000    -1.776000000    -1.305000000
C     0.632000000    -1.132000000     0.206000000
H     1.048000000    -2.129000000     0.326000000
C     0.986000000    -0.087000000     1.038000000
H     1.748000000    -0.279000000     1.789000000
C     0.539000000     1.258000000     0.851000000
C     1.031000000     2.359000000     1.751000000
O     0.477000000     3.451000000     1.777000000
O     1.979000000     2.120000000     2.552000000
