14
-89.82917
C     1.208000000     0.353000000     0.811000000
H     1.982000000     0.523000000     1.554000000
C     0.052000000    -0.223000000     1.299000000
H    -0.080000000    -0.346000000     2.371000000
C    -1.032000000    -0.554000000     0.494000000
H    -1.957000000    -0.938000000     0.837000000
C    -0.848000000    -0.390000000    -0.893000000
H    -1.737000000    -0.642000000    -1.466000000
C     0.382000000     0.070000000    -1.413000000
H     0.458000000     0.237000000    -2.484000000
C     1.400000000     0.502000000    -0.539000000
C     2.607000000     1.206000000    -1.060000000
O     2.505000000     1.711000000    -2.175000000
O     3.611000000     1.283000000    -0.401000000
