14
-79.43481
C     0.234000000     0.334000000     1.447000000
H     0.194000000     0.646000000     2.487000000
C    -0.880000000    -0.307000000     0.926000000
H    -1.788000000    -0.433000000     1.510000000
C    -1.001000000    -0.561000000    -0.375000000
H    -1.984000000    -0.967000000    -0.810000000
C     0.044000000    -0.334000000    -1.248000000
H    -0.108000000    -0.613000000    -2.287000000
C     1.170000000     0.297000000    -0.818000000
H     1.961000000     0.551000000    -1.519000000
C     1.332000000     0.663000000     0.591000000
C     2.505000000     1.435000000     1.051000000
O     2.318000000     2.383000000     1.786000000
O     3.622000000     1.407000000     0.447000000
