14
-76.04083
C    -0.095000000     0.493000000     1.362000000
H    -0.199000000     0.781000000     2.406000000
C    -0.876000000    -0.532000000     0.811000000
H    -1.681000000    -1.009000000     1.365000000
C    -0.716000000    -0.832000000    -0.570000000
H    -1.332000000    -1.584000000    -1.102000000
C     0.223000000    -0.149000000    -1.346000000
H     0.323000000    -0.594000000    -2.333000000
C     1.100000000     0.766000000    -0.781000000
H     1.947000000     1.240000000    -1.270000000
C     0.944000000     1.140000000     0.590000000
C     1.836000000     2.132000000     1.322000000
O     1.438000000     2.706000000     2.287000000
O     2.683000000     2.701000000     0.673000000
