14
-87.64960
C    -0.019000000     0.478000000     1.428000000
H    -0.207000000     0.867000000     2.426000000
C    -1.133000000    -0.076000000     0.776000000
H    -2.116000000    -0.182000000     1.228000000
C    -0.959000000    -0.601000000    -0.455000000
H    -1.693000000    -1.214000000    -0.967000000
C     0.262000000    -0.482000000    -1.110000000
H     0.328000000    -0.911000000    -2.106000000
C     1.351000000     0.144000000    -0.549000000
H     2.278000000     0.295000000    -1.096000000
C     1.187000000     0.673000000     0.759000000
C     2.347000000     1.390000000     1.279000000
O     2.294000000     1.873000000     2.390000000
O     3.266000000     1.715000000     0.476000000
