14
-86.77632
C    -0.206000000     0.980000000     1.026000000
H    -0.608000000     1.784000000     1.636000000
C    -0.977000000    -0.143000000     0.795000000
H    -1.914000000    -0.291000000     1.325000000
C    -0.614000000    -1.043000000    -0.163000000
H    -1.184000000    -1.957000000    -0.416000000
C     0.576000000    -0.866000000    -0.848000000
H     0.847000000    -1.566000000    -1.634000000
C     1.426000000     0.267000000    -0.561000000
H     2.372000000     0.354000000    -1.089000000
C     0.981000000     1.206000000     0.371000000
C     1.642000000     2.544000000     0.510000000
O     1.683000000     3.137000000     1.583000000
O     2.316000000     3.039000000    -0.402000000
