14
-89.18386
C    -0.056000000     1.088000000     1.042000000
H    -0.052000000     1.836000000     1.831000000
C     0.158000000    -0.253000000     1.361000000
H     0.349000000    -0.434000000     2.416000000
C     0.183000000    -1.166000000     0.328000000
H     0.455000000    -2.290000000     0.476000000
C    -0.046000000    -0.788000000    -0.973000000
H     0.072000000    -1.562000000    -1.727000000
C    -0.224000000     0.538000000    -1.261000000
H    -0.404000000     0.839000000    -2.290000000
C    -0.301000000     1.534000000    -0.274000000
C    -0.475000000     2.968000000    -0.702000000
O    -0.879000000     3.830000000     0.105000000
O    -0.234000000     3.312000000    -1.855000000
