14
-88.25946
C    -1.221000000     0.741000000    -0.444000000
H    -2.149000000     1.224000000    -0.738000000
C    -1.000000000    -0.621000000    -0.505000000
H    -1.711000000    -1.217000000    -1.072000000
C     0.152000000    -1.240000000    -0.067000000
H     0.361000000    -2.278000000    -0.232000000
C     1.157000000    -0.458000000     0.453000000
H     2.047000000    -1.007000000     0.748000000
C     0.968000000     0.921000000     0.569000000
H     1.807000000     1.563000000     0.822000000
C    -0.201000000     1.547000000     0.130000000
C    -0.402000000     3.084000000     0.192000000
O    -1.251000000     3.583000000    -0.500000000
O     0.146000000     3.752000000     1.059000000
