14
-78.50406
C    -1.063000000     0.732000000     0.609000000
H    -1.822000000     1.192000000     1.236000000
C    -0.667000000    -0.504000000     0.915000000
H    -1.101000000    -1.038000000     1.756000000
C     0.206000000    -1.230000000     0.150000000
H     0.437000000    -2.307000000     0.359000000
C     0.891000000    -0.597000000    -0.909000000
H     1.560000000    -1.082000000    -1.615000000
C     0.593000000     0.743000000    -1.117000000
H     1.098000000     1.309000000    -1.896000000
C    -0.434000000     1.439000000    -0.373000000
C    -0.851000000     2.891000000    -0.604000000
O    -1.630000000     3.490000000     0.145000000
O    -0.453000000     3.456000000    -1.544000000
