14
-86.29665
C    -0.058000000     1.283000000     0.757000000
H    -0.171000000     2.219000000     1.299000000
C     0.170000000     0.019000000     1.367000000
H     0.401000000    -0.006000000     2.429000000
C     0.276000000    -1.128000000     0.562000000
H     0.471000000    -2.031000000     0.981000000
C     0.087000000    -0.988000000    -0.817000000
H     0.275000000    -1.853000000    -1.449000000
C    -0.242000000     0.260000000    -1.380000000
H    -0.439000000     0.351000000    -2.445000000
C    -0.314000000     1.436000000    -0.649000000
C    -0.683000000     2.772000000    -1.321000000
O    -0.854000000     3.729000000    -0.646000000
O    -0.965000000     2.780000000    -2.505000000
