14
-91.86059
C    -0.524000000     0.821000000    -1.120000000
H    -1.023000000     1.372000000    -1.913000000
C    -0.857000000    -0.560000000    -0.863000000
H    -1.539000000    -1.102000000    -1.512000000
C    -0.265000000    -1.188000000     0.175000000
H    -0.545000000    -2.262000000     0.350000000
C     0.607000000    -0.515000000     1.029000000
H     0.991000000    -1.013000000     1.916000000
C     0.802000000     0.875000000     0.874000000
H     1.338000000     1.399000000     1.661000000
C     0.230000000     1.571000000    -0.220000000
C     0.641000000     3.031000000    -0.379000000
O    -0.043000000     3.703000000    -1.139000000
O     1.630000000     3.446000000     0.215000000
