14
-83.50379
C     0.774000000    -1.185000000    -0.341000000
H     1.340000000    -1.968000000    -0.839000000
C     0.769000000     0.001000000    -1.007000000
H     1.404000000     0.075000000    -1.887000000
C    -0.057000000     1.042000000    -0.627000000
H    -0.080000000     2.018000000    -1.103000000
C    -0.839000000     0.934000000     0.512000000
H    -1.506000000     1.761000000     0.742000000
C    -0.789000000    -0.276000000     1.230000000
H    -1.197000000    -0.397000000     2.230000000
C     0.102000000    -1.331000000     0.826000000
C     0.305000000    -2.543000000     1.717000000
O     0.019000000    -2.619000000     2.913000000
O     0.956000000    -3.506000000     1.279000000
