14
-73.85204
C    -0.320000000     0.945000000    -1.099000000
H    -0.634000000     1.609000000    -1.900000000
C     0.069000000    -0.403000000    -1.282000000
H     0.294000000    -0.835000000    -2.254000000
C     0.463000000    -1.103000000    -0.162000000
H     0.761000000    -2.103000000    -0.327000000
C     0.375000000    -0.566000000     1.096000000
H     0.769000000    -1.112000000     1.950000000
C    -0.143000000     0.715000000     1.305000000
H    -0.095000000     1.073000000     2.330000000
C    -0.552000000     1.469000000     0.215000000
C    -1.271000000     2.787000000     0.379000000
O    -1.790000000     3.442000000    -0.512000000
O    -1.590000000     3.199000000     1.447000000
