14
-92.51315
C    -0.877000000     1.121000000     0.371000000
H    -1.550000000     1.951000000     0.573000000
C    -1.139000000     0.258000000    -0.660000000
H    -1.993000000     0.378000000    -1.321000000
C    -0.185000000    -0.705000000    -0.966000000
H    -0.313000000    -1.302000000    -1.876000000
C     0.867000000    -0.914000000    -0.134000000
H     1.541000000    -1.757000000    -0.258000000
C     1.074000000    -0.108000000     0.953000000
H     1.933000000    -0.195000000     1.614000000
C     0.178000000     0.907000000     1.264000000
C     0.486000000     1.754000000     2.447000000
O    -0.238000000     2.772000000     2.575000000
O     1.304000000     1.337000000     3.262000000
