14
-78.27890
C     0.190000000     1.442000000     0.025000000
H     0.289000000     2.524000000     0.000000000
C    -0.749000000     0.737000000    -0.717000000
H    -1.422000000     1.214000000    -1.425000000
C    -0.810000000    -0.630000000    -0.703000000
H    -1.500000000    -1.069000000    -1.433000000
C     0.039000000    -1.338000000     0.173000000
H     0.073000000    -2.424000000     0.192000000
C     0.905000000    -0.599000000     1.014000000
H     1.719000000    -1.070000000     1.559000000
C     0.969000000     0.787000000     0.975000000
C     1.962000000     1.539000000     1.758000000
O     1.868000000     2.733000000     1.907000000
O     2.646000000     0.965000000     2.566000000
