14
-90.01980
C    -0.749000000     1.229000000    -0.329000000
H    -1.333000000     2.081000000    -0.668000000
C    -0.839000000    -0.013000000    -1.015000000
H    -1.608000000    -0.136000000    -1.773000000
C    -0.126000000    -1.083000000    -0.590000000
H    -0.237000000    -2.065000000    -1.039000000
C     0.811000000    -0.890000000     0.450000000
H     1.358000000    -1.808000000     0.648000000
C     1.021000000     0.333000000     1.118000000
H     1.772000000     0.453000000     1.895000000
C     0.199000000     1.411000000     0.739000000
C     0.214000000     2.739000000     1.489000000
O    -0.333000000     3.699000000     0.965000000
O     0.962000000     2.863000000     2.445000000
