14
-88.92057
C     1.219000000     0.886000000    -0.161000000
H     1.919000000     1.697000000    -0.349000000
C     0.296000000     0.550000000    -1.144000000
H     0.332000000     0.881000000    -2.179000000
C    -0.761000000    -0.369000000    -0.862000000
H    -1.478000000    -0.528000000    -1.655000000
C    -0.906000000    -0.909000000     0.373000000
H    -1.790000000    -1.443000000     0.713000000
C     0.007000000    -0.567000000     1.385000000
H    -0.087000000    -0.896000000     2.417000000
C     1.024000000     0.403000000     1.118000000
C     1.874000000     0.848000000     2.211000000
O     2.588000000     1.830000000     1.988000000
O     1.902000000     0.285000000     3.327000000
