14
-86.05565
C    -0.514000000     0.674000000     1.212000000
H    -0.854000000     1.381000000     1.965000000
C    -0.276000000     1.254000000    -0.081000000
H    -0.584000000     2.282000000    -0.251000000
C     0.241000000     0.537000000    -1.123000000
H     0.326000000     0.991000000    -2.044000000
C     0.401000000    -0.849000000    -0.909000000
H     0.696000000    -1.416000000    -1.787000000
C     0.307000000    -1.416000000     0.355000000
H     0.651000000    -2.435000000     0.517000000
C    -0.154000000    -0.641000000     1.435000000
C    -0.564000000    -1.319000000     2.763000000
O    -1.190000000    -0.703000000     3.627000000
O    -0.238000000    -2.449000000     2.987000000
