14
-92.43444
C     1.128000000     0.819000000     0.332000000
H     1.931000000     1.544000000     0.439000000
C     0.512000000     0.843000000    -0.900000000
H     0.835000000     1.617000000    -1.590000000
C    -0.530000000    -0.066000000    -1.139000000
H    -1.050000000    -0.032000000    -2.078000000
C    -0.885000000    -0.976000000    -0.127000000
H    -1.662000000    -1.711000000    -0.321000000
C    -0.266000000    -0.922000000     1.130000000
H    -0.637000000    -1.565000000     1.924000000
C     0.751000000     0.035000000     1.405000000
C     1.395000000     0.114000000     2.755000000
O     2.485000000     0.690000000     2.778000000
O     0.945000000    -0.427000000     3.756000000
