14
-80.32714
C     0.656000000     1.323000000     0.030000000
H     1.049000000     2.336000000     0.034000000
C     0.062000000     0.745000000    -1.073000000
H     0.006000000     1.256000000    -2.031000000
C    -0.402000000    -0.552000000    -1.012000000
H    -0.624000000    -1.026000000    -1.950000000
C    -0.473000000    -1.282000000     0.215000000
H    -0.874000000    -2.291000000     0.274000000
C    -0.015000000    -0.624000000     1.317000000
H    -0.100000000    -1.214000000     2.227000000
C     0.586000000     0.655000000     1.320000000
C     1.150000000     1.278000000     2.589000000
O     1.746000000     2.371000000     2.585000000
O     1.049000000     0.780000000     3.658000000
