14
-87.13432
C     0.952000000    -1.078000000    -0.494000000
H     1.546000000    -1.852000000    -0.974000000
C     0.525000000     0.013000000    -1.246000000
H     0.731000000     0.228000000    -2.292000000
C    -0.341000000     0.927000000    -0.706000000
H    -0.759000000     1.654000000    -1.288000000
C    -0.791000000     0.804000000     0.607000000
H    -1.621000000     1.435000000     0.915000000
C    -0.238000000    -0.153000000     1.415000000
H    -0.557000000    -0.356000000     2.434000000
C     0.578000000    -1.133000000     0.855000000
C     1.107000000    -2.277000000     1.782000000
O     0.520000000    -2.689000000     2.779000000
O     2.155000000    -2.769000000     1.437000000
