14
-88.21264
C     1.048000000     0.241000000     1.029000000
H     1.839000000     0.452000000     1.744000000
C     0.975000000     0.859000000    -0.267000000
H     1.718000000     1.546000000    -0.665000000
C    -0.143000000     0.598000000    -1.093000000
H    -0.100000000     1.048000000    -2.097000000
C    -1.125000000    -0.302000000    -0.682000000
H    -1.940000000    -0.639000000    -1.318000000
C    -0.971000000    -0.968000000     0.575000000
H    -1.668000000    -1.696000000     0.983000000
C     0.083000000    -0.674000000     1.438000000
C     0.203000000    -1.335000000     2.820000000
O     1.053000000    -0.969000000     3.629000000
O    -0.367000000    -2.383000000     3.036000000
