14
-83.41354
C    -0.220000000     0.683000000     1.285000000
H    -0.231000000     1.281000000     2.192000000
C    -0.236000000     1.297000000     0.083000000
H    -0.458000000     2.358000000     0.000000000
C    -0.013000000     0.538000000    -1.098000000
H    -0.088000000     1.068000000    -2.103000000
C     0.175000000    -0.815000000    -0.996000000
H     0.396000000    -1.444000000    -1.854000000
C     0.240000000    -1.393000000     0.268000000
H     0.574000000    -2.427000000     0.325000000
C     0.017000000    -0.666000000     1.396000000
C     0.127000000    -1.321000000     2.762000000
O    -0.395000000    -0.787000000     3.740000000
O     0.679000000    -2.345000000     2.896000000
