14
-86.64926
C     1.285000000    -0.304000000     0.622000000
H     2.303000000    -0.369000000     0.998000000
C     1.061000000     0.523000000    -0.515000000
H     1.844000000     1.088000000    -1.013000000
C    -0.208000000     0.726000000    -0.963000000
H    -0.496000000     1.460000000    -1.803000000
C    -1.266000000    -0.017000000    -0.422000000
H    -2.248000000     0.149000000    -0.856000000
C    -1.060000000    -0.847000000     0.676000000
H    -1.842000000    -1.280000000     1.295000000
C     0.233000000    -1.008000000     1.197000000
C     0.434000000    -1.966000000     2.419000000
O     1.564000000    -2.114000000     2.810000000
O    -0.438000000    -2.819000000     2.708000000
