14
-82.17886
C    -0.044000000     0.958000000     1.153000000
H    -0.330000000     1.785000000     1.798000000
C    -0.292000000     1.229000000    -0.199000000
H    -0.539000000     2.250000000    -0.480000000
C    -0.074000000     0.253000000    -1.181000000
H    -0.262000000     0.494000000    -2.255000000
C     0.282000000    -1.010000000    -0.854000000
H     0.373000000    -1.698000000    -1.691000000
C     0.396000000    -1.349000000     0.516000000
H     0.707000000    -2.351000000     0.800000000
C     0.234000000    -0.350000000     1.506000000
C     0.229000000    -0.702000000     3.018000000
O     0.111000000     0.086000000     3.932000000
O    -0.027000000    -1.892000000     3.303000000
