14
-88.91642
C     1.096000000    -1.006000000    -0.002000000
H     2.022000000    -1.575000000    -0.002000000
C     1.109000000     0.324000000    -0.500000000
H     2.038000000     0.730000000    -0.893000000
C    -0.020000000     1.101000000    -0.530000000
H    -0.053000000     2.053000000    -0.924000000
C    -1.131000000     0.736000000     0.192000000
H    -1.861000000     1.521000000     0.373000000
C    -1.129000000    -0.579000000     0.765000000
H    -2.003000000    -0.808000000     1.369000000
C    -0.056000000    -1.479000000     0.606000000
C    -0.086000000    -2.859000000     1.311000000
O     0.955000000    -3.483000000     1.266000000
O    -1.064000000    -3.113000000     2.043000000
