14
-90.92794
C    -0.587000000    -1.373000000     0.076000000
H    -1.039000000    -2.356000000    -0.024000000
C     0.730000000    -1.103000000    -0.437000000
H     1.351000000    -1.860000000    -0.907000000
C     1.211000000     0.223000000    -0.322000000
H     2.242000000     0.488000000    -0.590000000
C     0.301000000     1.212000000     0.113000000
H     0.612000000     2.252000000     0.163000000
C    -0.942000000     0.937000000     0.637000000
H    -1.557000000     1.773000000     0.960000000
C    -1.403000000    -0.361000000     0.573000000
C    -2.796000000    -0.761000000     1.066000000
O    -3.293000000    -1.864000000     0.946000000
O    -3.349000000     0.127000000     1.741000000
