14
-90.36478
C    -0.581000000    -1.137000000     0.790000000
H    -0.892000000    -1.852000000     1.547000000
C     0.784000000    -0.899000000     0.491000000
H     1.445000000    -1.602000000     0.991000000
C     1.222000000     0.152000000    -0.281000000
H     2.256000000     0.221000000    -0.465000000
C     0.257000000     1.064000000    -0.734000000
H     0.647000000     1.867000000    -1.355000000
C    -1.094000000     0.913000000    -0.429000000
H    -1.803000000     1.657000000    -0.784000000
C    -1.537000000    -0.218000000     0.269000000
C    -3.047000000    -0.430000000     0.543000000
O    -3.495000000    -1.379000000     1.164000000
O    -3.764000000     0.366000000    -0.023000000
