14
-85.99739
C    -1.229000000    -0.692000000    -0.453000000
H    -2.058000000    -1.307000000    -0.794000000
C     0.025000000    -1.027000000    -0.851000000
H     0.298000000    -1.852000000    -1.504000000
C     1.080000000    -0.244000000    -0.402000000
H     2.087000000    -0.481000000    -0.685000000
C     0.929000000     0.730000000     0.559000000
H     1.755000000     1.290000000     0.988000000
C    -0.347000000     1.108000000     0.863000000
H    -0.441000000     1.932000000     1.565000000
C    -1.507000000     0.433000000     0.364000000
C    -2.862000000     0.715000000     0.898000000
O    -3.875000000     0.121000000     0.435000000
O    -2.999000000     1.675000000     1.620000000
