14
-85.45183
C    -0.388000000    -1.437000000    -0.003000000
H    -0.608000000    -2.499000000     0.068000000
C     0.906000000    -0.952000000     0.117000000
H     1.799000000    -1.564000000     0.208000000
C     1.142000000     0.410000000     0.278000000
H     2.113000000     0.856000000     0.499000000
C     0.093000000     1.244000000     0.005000000
H     0.230000000     2.321000000     0.055000000
C    -1.165000000     0.749000000    -0.249000000
H    -1.897000000     1.519000000    -0.480000000
C    -1.488000000    -0.636000000    -0.244000000
C    -2.880000000    -1.080000000    -0.411000000
O    -3.108000000    -2.203000000     0.057000000
O    -3.780000000    -0.454000000    -0.928000000
