14
-84.62579
C     0.103000000     0.691000000    -1.361000000
H     0.355000000     1.089000000    -2.340000000
C     1.163000000     0.189000000    -0.615000000
H     2.178000000     0.281000000    -0.991000000
C     1.011000000    -0.376000000     0.638000000
H     1.906000000    -0.781000000     1.116000000
C    -0.282000000    -0.663000000     1.122000000
H    -0.542000000    -1.289000000     1.971000000
C    -1.384000000    -0.106000000     0.383000000
H    -2.392000000    -0.347000000     0.711000000
C    -1.221000000     0.540000000    -0.863000000
C    -2.451000000     1.116000000    -1.552000000
O    -2.302000000     1.806000000    -2.538000000
O    -3.564000000     0.707000000    -1.310000000
