14
-80.20926
C     1.137000000    -0.157000000     0.848000000
H     2.088000000    -0.310000000     1.352000000
C     1.227000000    -0.029000000    -0.539000000
H     2.160000000    -0.147000000    -1.086000000
C     0.051000000     0.203000000    -1.155000000
H     0.078000000     0.363000000    -2.196000000
C    -1.211000000     0.162000000    -0.529000000
H    -2.089000000     0.400000000    -1.124000000
C    -1.246000000    -0.012000000     0.810000000
H    -2.185000000     0.006000000     1.358000000
C    -0.080000000    -0.193000000     1.575000000
C    -0.034000000    -0.346000000     3.055000000
O    -0.947000000    -0.831000000     3.717000000
O     0.890000000     0.066000000     3.687000000
