14
-91.24368
C     0.002000000     0.925000000    -1.176000000
H     0.093000000     1.508000000    -2.090000000
C     1.084000000     0.604000000    -0.299000000
H     2.040000000     1.080000000    -0.506000000
C     0.926000000    -0.220000000     0.791000000
H     1.677000000    -0.399000000     1.455000000
C    -0.288000000    -0.898000000     0.951000000
H    -0.407000000    -1.572000000     1.796000000
C    -1.392000000    -0.589000000     0.127000000
H    -2.346000000    -1.077000000     0.307000000
C    -1.222000000     0.302000000    -0.945000000
C    -2.314000000     0.565000000    -1.928000000
O    -1.996000000     0.999000000    -3.034000000
O    -3.476000000     0.241000000    -1.708000000
