14
-88.67619
C     1.134000000     0.879000000    -0.323000000
H     1.852000000     1.678000000    -0.485000000
C     0.854000000     0.428000000     0.955000000
H     1.504000000     0.782000000     1.752000000
C    -0.263000000    -0.412000000     1.149000000
H    -0.573000000    -0.847000000     2.043000000
C    -1.076000000    -0.763000000     0.087000000
H    -1.955000000    -1.378000000     0.261000000
C    -0.771000000    -0.371000000    -1.245000000
H    -1.431000000    -0.673000000    -2.053000000
C     0.337000000     0.491000000    -1.457000000
C     0.662000000     0.980000000    -2.907000000
O     1.792000000     1.418000000    -3.107000000
O    -0.140000000     0.891000000    -3.781000000
