14
-73.45569
C     0.543000000     1.351000000     0.048000000
H     0.976000000     2.326000000     0.254000000
C    -0.099000000     0.715000000     1.044000000
H    -0.248000000     1.204000000     2.003000000
C    -0.588000000    -0.553000000     0.940000000
H    -1.174000000    -1.073000000     1.653000000
C    -0.402000000    -1.182000000    -0.315000000
H    -0.783000000    -2.197000000    -0.404000000
C     0.223000000    -0.560000000    -1.352000000
H     0.382000000    -1.138000000    -2.258000000
C     0.667000000     0.753000000    -1.193000000
C     1.369000000     1.510000000    -2.312000000
O     2.276000000     2.303000000    -2.098000000
O     1.519000000     0.938000000    -3.396000000
