14
-89.86894
C     1.109000000     0.448000000     0.828000000
H     1.909000000     0.949000000     1.367000000
C     0.916000000     0.744000000    -0.483000000
H     1.699000000     1.331000000    -0.956000000
C    -0.242000000     0.321000000    -1.146000000
H    -0.475000000     0.579000000    -2.179000000
C    -1.196000000    -0.446000000    -0.509000000
H    -2.048000000    -0.842000000    -1.056000000
C    -0.922000000    -0.801000000     0.815000000
H    -1.665000000    -1.460000000     1.257000000
C     0.173000000    -0.279000000     1.541000000
C     0.533000000    -0.746000000     2.920000000
O    -0.028000000    -1.723000000     3.383000000
O     1.440000000    -0.163000000     3.528000000
