14
-83.35695
C     0.629000000     0.035000000     1.291000000
H     1.053000000     0.346000000     2.242000000
C    -0.404000000     0.910000000     0.914000000
H    -0.705000000     1.703000000     1.593000000
C    -0.858000000     0.837000000    -0.399000000
H    -1.607000000     1.575000000    -0.745000000
C    -0.506000000    -0.280000000    -1.115000000
H    -0.949000000    -0.541000000    -2.073000000
C     0.546000000    -1.113000000    -0.778000000
H     0.744000000    -1.972000000    -1.414000000
C     1.148000000    -0.979000000     0.454000000
C     2.245000000    -1.952000000     0.940000000
O     2.588000000    -2.937000000     0.270000000
O     2.777000000    -1.792000000     2.003000000
