14
-91.06037
C     1.018000000     0.595000000     0.903000000
H     1.762000000     0.766000000     1.677000000
C     0.076000000    -0.338000000     1.253000000
H     0.086000000    -0.743000000     2.262000000
C    -0.897000000    -0.733000000     0.346000000
H    -1.569000000    -1.520000000     0.552000000
C    -0.835000000    -0.240000000    -0.961000000
H    -1.484000000    -0.629000000    -1.741000000
C     0.158000000     0.680000000    -1.325000000
H     0.185000000     1.020000000    -2.357000000
C     1.116000000     1.093000000    -0.406000000
C     2.321000000     1.833000000    -0.808000000
O     2.418000000     2.033000000    -2.009000000
O     3.116000000     2.308000000     0.067000000
