14
-90.45110
C     0.762000000     1.250000000    -0.328000000
H     1.174000000     2.194000000    -0.677000000
C     0.111000000     1.017000000     0.865000000
H     0.229000000     1.800000000     1.610000000
C    -0.532000000    -0.203000000     1.098000000
H    -0.883000000    -0.514000000     2.057000000
C    -0.612000000    -1.180000000     0.108000000
H    -1.105000000    -2.103000000     0.402000000
C    -0.037000000    -0.957000000    -1.109000000
H    -0.170000000    -1.654000000    -1.932000000
C     0.706000000     0.256000000    -1.366000000
C     1.360000000     0.484000000    -2.712000000
O     1.899000000     1.558000000    -2.974000000
O     1.258000000    -0.397000000    -3.595000000
