14
-86.86844
C     1.225000000    -0.804000000    -0.093000000
H     2.172000000    -1.335000000    -0.041000000
C     1.081000000     0.280000000     0.809000000
H     1.817000000     0.654000000     1.515000000
C    -0.187000000     0.914000000     0.818000000
H    -0.290000000     1.694000000     1.484000000
C    -1.264000000     0.421000000     0.044000000
H    -2.177000000     1.010000000     0.078000000
C    -0.980000000    -0.552000000    -0.931000000
H    -1.711000000    -0.858000000    -1.675000000
C     0.258000000    -1.181000000    -1.006000000
C     0.496000000    -2.291000000    -2.055000000
O     1.600000000    -2.667000000    -2.348000000
O    -0.463000000    -2.789000000    -2.619000000
