14
-87.80198
C     1.255000000     0.867000000    -0.303000000
H     2.143000000     1.493000000    -0.331000000
C     0.361000000     1.017000000     0.739000000
H     0.493000000     1.754000000     1.527000000
C    -0.726000000     0.176000000     0.915000000
H    -1.360000000     0.363000000     1.666000000
C    -1.052000000    -0.799000000     0.019000000
H    -1.948000000    -1.379000000     0.224000000
C    -0.211000000    -0.966000000    -1.112000000
H    -0.447000000    -1.667000000    -1.909000000
C     0.986000000    -0.221000000    -1.187000000
C     1.899000000    -0.456000000    -2.333000000
O     3.105000000    -0.167000000    -2.118000000
O     1.518000000    -1.136000000    -3.299000000
