14
-86.75041
C     1.156000000     0.882000000     0.155000000
H     1.858000000     1.707000000     0.238000000
C    -0.013000000     1.018000000     0.884000000
H    -0.183000000     1.902000000     1.494000000
C    -1.055000000     0.137000000     0.617000000
H    -2.093000000     0.226000000     0.932000000
C    -0.887000000    -0.945000000    -0.229000000
H    -1.731000000    -1.626000000    -0.299000000
C     0.361000000    -1.171000000    -0.898000000
H     0.389000000    -1.982000000    -1.621000000
C     1.364000000    -0.213000000    -0.681000000
C     2.736000000    -0.365000000    -1.448000000
O     3.635000000     0.364000000    -1.133000000
O     2.937000000    -1.390000000    -2.112000000
