14
-77.79471
C     0.345000000     1.021000000    -0.984000000
H     0.599000000     1.928000000    -1.526000000
C     0.213000000     1.222000000     0.388000000
H     0.392000000     2.221000000     0.777000000
C    -0.180000000     0.217000000     1.177000000
H    -0.337000000     0.390000000     2.246000000
C    -0.242000000    -1.081000000     0.711000000
H    -0.481000000    -1.747000000     1.536000000
C    -0.050000000    -1.321000000    -0.679000000
H    -0.138000000    -2.333000000    -1.065000000
C     0.270000000    -0.208000000    -1.511000000
C     0.482000000    -0.504000000    -2.998000000
O     1.019000000     0.253000000    -3.699000000
O     0.106000000    -1.586000000    -3.456000000
