14
-85.89423
C     0.527000000    -0.887000000    -0.989000000
H     1.112000000    -1.558000000    -1.613000000
C     0.804000000     0.437000000    -0.886000000
H     1.351000000     1.002000000    -1.636000000
C     0.162000000     1.245000000     0.058000000
H     0.356000000     2.347000000     0.196000000
C    -0.647000000     0.603000000     0.987000000
H    -1.133000000     1.274000000     1.690000000
C    -0.911000000    -0.790000000     0.902000000
H    -1.643000000    -1.236000000     1.570000000
C    -0.322000000    -1.550000000    -0.059000000
C    -0.558000000    -3.141000000    -0.029000000
O     0.280000000    -3.836000000    -0.601000000
O    -1.387000000    -3.541000000     0.710000000
