14
-86.30616
C     1.456000000    -0.504000000    -0.150000000
H     2.490000000    -0.841000000    -0.132000000
C     0.881000000     0.231000000     0.985000000
H     1.552000000     0.625000000     1.744000000
C    -0.439000000     0.730000000     0.944000000
H    -0.816000000     1.468000000     1.704000000
C    -1.251000000     0.345000000    -0.133000000
H    -2.275000000     0.708000000    -0.118000000
C    -0.782000000    -0.482000000    -1.123000000
H    -1.516000000    -0.767000000    -1.872000000
C     0.618000000    -0.851000000    -1.238000000
C     1.108000000    -1.539000000    -2.535000000
O     2.263000000    -1.932000000    -2.617000000
O     0.318000000    -1.808000000    -3.448000000
