14
-86.96437
C    -0.751000000    -1.225000000    -0.422000000
H    -1.231000000    -2.073000000    -0.904000000
C    -0.605000000    -0.080000000    -1.195000000
H    -0.966000000    -0.051000000    -2.221000000
C    -0.013000000     1.027000000    -0.630000000
H     0.058000000     1.882000000    -1.220000000
C     0.621000000     0.944000000     0.593000000
H     1.159000000     1.795000000     1.002000000
C     0.470000000    -0.209000000     1.421000000
H     0.829000000    -0.295000000     2.443000000
C    -0.219000000    -1.284000000     0.887000000
C    -0.072000000    -2.593000000     1.569000000
O    -0.482000000    -3.614000000     1.027000000
O     0.598000000    -2.617000000     2.561000000
