14
-90.60740
C     0.793000000    -1.256000000    -0.107000000
H     1.405000000    -2.112000000    -0.378000000
C    -0.045000000    -0.737000000    -1.115000000
H    -0.270000000    -1.278000000    -2.030000000
C    -0.715000000     0.497000000    -0.886000000
H    -1.349000000     0.872000000    -1.628000000
C    -0.449000000     1.224000000     0.283000000
H    -0.862000000     2.218000000     0.433000000
C     0.303000000     0.612000000     1.305000000
H     0.260000000     1.001000000     2.319000000
C     0.885000000    -0.617000000     1.119000000
C     1.689000000    -1.296000000     2.216000000
O     2.599000000    -2.110000000     2.023000000
O     1.439000000    -0.955000000     3.369000000
