14
-86.34792
C     0.477000000    -1.360000000     0.216000000
H     0.695000000    -2.420000000     0.319000000
C     0.358000000    -0.690000000    -1.040000000
H     0.564000000    -1.141000000    -2.007000000
C    -0.091000000     0.554000000    -1.103000000
H    -0.186000000     1.137000000    -2.058000000
C    -0.434000000     1.198000000     0.060000000
H    -0.802000000     2.220000000     0.017000000
C    -0.292000000     0.626000000     1.306000000
H    -0.549000000     1.163000000     2.216000000
C     0.154000000    -0.709000000     1.429000000
C     0.316000000    -1.500000000     2.730000000
O     0.959000000    -2.547000000     2.738000000
O     0.014000000    -0.946000000     3.771000000
