14
-88.40979
C     0.317000000    -1.451000000     0.003000000
H     0.445000000    -2.524000000    -0.106000000
C     0.177000000    -0.657000000    -1.101000000
H     0.307000000    -1.031000000    -2.114000000
C    -0.054000000     0.738000000    -0.964000000
H    -0.139000000     1.427000000    -1.823000000
C    -0.255000000     1.277000000     0.300000000
H    -0.453000000     2.344000000     0.350000000
C    -0.225000000     0.378000000     1.394000000
H    -0.404000000     0.760000000     2.395000000
C     0.065000000    -0.954000000     1.267000000
C     0.282000000    -1.824000000     2.409000000
O     0.448000000    -3.062000000     2.313000000
O     0.296000000    -1.268000000     3.485000000
