14
-89.49245
C     1.209000000    -0.723000000    -0.568000000
H     2.091000000    -1.218000000    -0.965000000
C     1.009000000     0.682000000    -0.618000000
H     1.642000000     1.359000000    -1.187000000
C    -0.107000000     1.224000000    -0.021000000
H    -0.130000000     2.311000000    -0.094000000
C    -1.067000000     0.446000000     0.583000000
H    -1.951000000     0.934000000     0.988000000
C    -0.826000000    -0.919000000     0.709000000
H    -1.564000000    -1.421000000     1.329000000
C     0.321000000    -1.506000000     0.197000000
C     0.434000000    -3.004000000     0.390000000
O     1.411000000    -3.528000000    -0.107000000
O    -0.328000000    -3.645000000     1.184000000
