14
-75.23874
C     1.189000000    -0.474000000    -0.651000000
H     1.990000000    -0.834000000    -1.291000000
C     0.640000000     0.746000000    -0.853000000
H     0.893000000     1.481000000    -1.612000000
C    -0.446000000     1.138000000    -0.102000000
H    -0.871000000     2.142000000    -0.164000000
C    -1.005000000     0.156000000     0.689000000
H    -1.901000000     0.455000000     1.228000000
C    -0.512000000    -1.119000000     0.888000000
H    -0.960000000    -1.890000000     1.509000000
C     0.658000000    -1.400000000     0.259000000
C     1.349000000    -2.731000000     0.339000000
O     2.553000000    -2.821000000     0.203000000
O     0.693000000    -3.590000000     0.742000000
