14
-87.52983
C     0.762000000    -0.675000000    -1.095000000
H     1.286000000    -1.017000000    -1.984000000
C     0.153000000     0.589000000    -1.106000000
H     0.237000000     1.156000000    -2.030000000
C    -0.468000000     1.124000000    -0.025000000
H    -0.994000000     2.056000000    -0.044000000
C    -0.574000000     0.337000000     1.131000000
H    -1.142000000     0.677000000     1.993000000
C    -0.042000000    -0.934000000     1.159000000
H    -0.133000000    -1.439000000     2.118000000
C     0.640000000    -1.458000000     0.068000000
C     1.263000000    -2.820000000     0.136000000
O     1.910000000    -3.077000000    -0.798000000
O     1.048000000    -3.571000000     1.118000000
