14
-82.04722
C     0.796000000    -0.836000000    -1.031000000
H     1.358000000    -1.503000000    -1.681000000
C    -0.036000000     0.207000000    -1.338000000
H    -0.147000000     0.444000000    -2.393000000
C    -0.681000000     0.922000000    -0.319000000
H    -1.397000000     1.810000000    -0.574000000
C    -0.565000000     0.556000000     0.984000000
H    -1.185000000     1.008000000     1.754000000
C     0.169000000    -0.502000000     1.365000000
H     0.162000000    -0.842000000     2.397000000
C     0.899000000    -1.160000000     0.353000000
C     1.738000000    -2.325000000     0.772000000
O     2.639000000    -2.627000000     0.051000000
O     1.470000000    -2.946000000     1.772000000
