14
-87.10181
C     0.729000000     0.684000000     1.060000000
H     0.863000000     1.321000000     1.930000000
C     0.028000000     1.352000000     0.085000000
H    -0.166000000     2.405000000     0.273000000
C    -0.504000000     0.600000000    -0.940000000
H    -1.201000000     1.072000000    -1.642000000
C    -0.231000000    -0.764000000    -1.065000000
H    -0.611000000    -1.288000000    -1.938000000
C     0.419000000    -1.455000000    -0.047000000
H     0.603000000    -2.526000000    -0.074000000
C     0.841000000    -0.706000000     1.082000000
C     1.409000000    -1.368000000     2.332000000
O     1.862000000    -0.679000000     3.247000000
O     1.584000000    -2.580000000     2.368000000
