14
-84.15484
C     1.328000000     0.344000000     0.632000000
H     2.358000000     0.627000000     0.830000000
C     0.633000000     1.153000000    -0.279000000
H     1.017000000     2.082000000    -0.692000000
C    -0.618000000     0.689000000    -0.769000000
H    -1.244000000     1.363000000    -1.400000000
C    -1.233000000    -0.467000000    -0.283000000
H    -2.201000000    -0.758000000    -0.683000000
C    -0.568000000    -1.178000000     0.734000000
H    -1.031000000    -2.128000000     0.989000000
C     0.717000000    -0.847000000     1.121000000
C     1.520000000    -1.652000000     2.053000000
O     2.596000000    -1.278000000     2.466000000
O     1.147000000    -2.753000000     2.392000000
