14
-85.06491
C     1.438000000     0.117000000    -0.072000000
H     2.489000000     0.163000000    -0.346000000
C     0.476000000     0.760000000    -0.866000000
H     0.806000000     1.435000000    -1.651000000
C    -0.833000000     0.595000000    -0.650000000
H    -1.523000000     1.179000000    -1.223000000
C    -1.252000000    -0.140000000     0.453000000
H    -2.310000000    -0.369000000     0.548000000
C    -0.396000000    -0.739000000     1.304000000
H    -0.745000000    -1.280000000     2.179000000
C     0.986000000    -0.716000000     0.946000000
C     2.047000000    -1.591000000     1.635000000
O     3.166000000    -1.770000000     1.155000000
O     1.627000000    -2.342000000     2.498000000
