14
-83.51892
C     1.358000000    -0.054000000     0.589000000
H     2.382000000    -0.016000000     0.953000000
C     0.743000000     1.139000000     0.073000000
H     1.228000000     2.111000000     0.056000000
C    -0.519000000     1.027000000    -0.400000000
H    -1.041000000     1.938000000    -0.787000000
C    -1.178000000    -0.198000000    -0.444000000
H    -2.126000000    -0.428000000    -0.924000000
C    -0.603000000    -1.290000000     0.081000000
H    -1.122000000    -2.245000000     0.100000000
C     0.677000000    -1.275000000     0.595000000
C     1.265000000    -2.506000000     1.224000000
O     2.345000000    -2.394000000     1.718000000
O     0.745000000    -3.596000000     1.136000000
