14
-79.79447
C     1.186000000     0.474000000     0.784000000
H     1.966000000     0.926000000     1.392000000
C     0.000000000     1.192000000     0.634000000
H    -0.234000000     2.096000000     1.191000000
C    -0.966000000     0.728000000    -0.261000000
H    -1.882000000     1.326000000    -0.420000000
C    -0.909000000    -0.519000000    -0.774000000
H    -1.745000000    -0.865000000    -1.377000000
C     0.303000000    -1.308000000    -0.549000000
H     0.337000000    -2.228000000    -1.126000000
C     1.398000000    -0.833000000     0.193000000
C     2.580000000    -1.717000000     0.597000000
O     3.649000000    -1.266000000     0.977000000
O     2.564000000    -2.900000000     0.364000000
