14
-89.61251
C     1.288000000     0.112000000     0.722000000
H     2.191000000     0.435000000     1.233000000
C     0.164000000     0.847000000     0.968000000
H     0.192000000     1.657000000     1.693000000
C    -1.032000000     0.639000000     0.201000000
H    -1.932000000     1.249000000     0.369000000
C    -1.008000000    -0.261000000    -0.869000000
H    -1.841000000    -0.489000000    -1.529000000
C     0.113000000    -1.054000000    -1.023000000
H     0.134000000    -1.864000000    -1.747000000
C     1.222000000    -0.901000000    -0.207000000
C     2.400000000    -1.741000000    -0.512000000
O     3.416000000    -1.686000000     0.261000000
O     2.357000000    -2.516000000    -1.447000000
