14
-84.78124
C     1.319000000     0.394000000     0.581000000
H     2.270000000     0.844000000     0.854000000
C     0.109000000     1.028000000     0.776000000
H     0.109000000     1.900000000     1.426000000
C    -1.028000000     0.558000000     0.176000000
H    -1.967000000     1.064000000     0.328000000
C    -1.042000000    -0.560000000    -0.628000000
H    -2.010000000    -0.844000000    -1.032000000
C     0.174000000    -1.233000000    -0.804000000
H     0.206000000    -2.089000000    -1.475000000
C     1.383000000    -0.736000000    -0.217000000
C     2.639000000    -1.372000000    -0.617000000
O     3.603000000    -1.274000000     0.153000000
O     2.616000000    -2.268000000    -1.438000000
