14
-86.15471
C     1.492000000    -0.222000000     0.187000000
H     2.557000000    -0.265000000     0.401000000
C     0.756000000     0.834000000     0.755000000
H     1.281000000     1.696000000     1.159000000
C    -0.632000000     0.906000000     0.538000000
H    -1.170000000     1.716000000     1.006000000
C    -1.295000000    -0.042000000    -0.226000000
H    -2.377000000     0.018000000    -0.312000000
C    -0.506000000    -1.007000000    -0.890000000
H    -0.965000000    -1.759000000    -1.527000000
C     0.846000000    -1.138000000    -0.657000000
C     1.592000000    -2.369000000    -1.222000000
O     2.617000000    -2.647000000    -0.720000000
O     1.189000000    -2.934000000    -2.204000000
