14
-88.06686
C     1.385000000    -0.514000000     0.139000000
H     2.407000000    -0.752000000     0.421000000
C     0.884000000     0.702000000     0.663000000
H     1.474000000     1.319000000     1.336000000
C    -0.387000000     1.120000000     0.305000000
H    -0.903000000     2.071000000     0.714000000
C    -1.300000000     0.186000000    -0.331000000
H    -2.352000000     0.407000000    -0.489000000
C    -0.776000000    -1.015000000    -0.847000000
H    -1.440000000    -1.721000000    -1.337000000
C     0.586000000    -1.364000000    -0.564000000
C     1.144000000    -2.745000000    -0.874000000
O     2.313000000    -3.014000000    -0.632000000
O     0.428000000    -3.562000000    -1.455000000
