14
-85.45833
C     1.400000000     0.204000000    -0.124000000
H     2.458000000     0.431000000    -0.021000000
C     0.523000000     1.071000000     0.496000000
H     0.864000000     2.018000000     0.906000000
C    -0.786000000     0.812000000     0.501000000
H    -1.557000000     1.669000000     0.809000000
C    -1.236000000    -0.408000000     0.038000000
H    -2.275000000    -0.691000000     0.185000000
C    -0.347000000    -1.394000000    -0.471000000
H    -0.705000000    -2.337000000    -0.876000000
C     1.019000000    -1.070000000    -0.607000000
C     1.975000000    -2.005000000    -1.266000000
O     3.162000000    -1.620000000    -1.418000000
O     1.616000000    -3.083000000    -1.697000000
