14
-86.47374
C     1.422000000     0.158000000    -0.357000000
H     2.417000000     0.533000000    -0.581000000
C     0.696000000     0.956000000     0.526000000
H     1.131000000     1.740000000     1.140000000
C    -0.683000000     0.691000000     0.770000000
H    -1.271000000     1.247000000     1.461000000
C    -1.286000000    -0.350000000     0.130000000
H    -2.331000000    -0.562000000     0.341000000
C    -0.533000000    -1.183000000    -0.653000000
H    -1.022000000    -2.055000000    -1.079000000
C     0.839000000    -0.951000000    -1.019000000
C     1.679000000    -1.723000000    -2.020000000
O     2.845000000    -1.372000000    -2.213000000
O     1.169000000    -2.587000000    -2.658000000
