14
-74.45853
C     1.202000000     0.501000000     0.701000000
H     2.012000000     1.034000000     1.195000000
C     0.113000000     1.255000000     0.347000000
H     0.155000000     2.326000000     0.528000000
C    -0.956000000     0.681000000    -0.294000000
H    -1.689000000     1.360000000    -0.709000000
C    -1.012000000    -0.648000000    -0.606000000
H    -1.934000000    -1.071000000    -0.997000000
C     0.048000000    -1.466000000    -0.242000000
H    -0.021000000    -2.524000000    -0.479000000
C     1.207000000    -0.887000000     0.375000000
C     2.380000000    -1.795000000     0.687000000
O     3.428000000    -1.323000000     1.160000000
O     2.591000000    -2.829000000     0.118000000
