14
-92.28550
C     1.142000000    -0.273000000     0.953000000
H     1.871000000    -0.483000000     1.732000000
C     0.097000000    -1.133000000     0.625000000
H    -0.023000000    -2.105000000     1.097000000
C    -0.915000000    -0.770000000    -0.308000000
H    -1.738000000    -1.433000000    -0.517000000
C    -0.779000000     0.444000000    -1.013000000
H    -1.556000000     0.731000000    -1.717000000
C     0.229000000     1.305000000    -0.669000000
H     0.294000000     2.298000000    -1.106000000
C     1.218000000     0.939000000     0.250000000
C     2.335000000     1.921000000     0.615000000
O     3.136000000     1.639000000     1.487000000
O     2.350000000     3.010000000     0.096000000
