14
-85.85211
C     0.582000000    -0.757000000     1.107000000
H     1.002000000    -1.372000000     1.898000000
C    -0.631000000    -1.051000000     0.507000000
H    -1.195000000    -1.920000000     0.836000000
C    -1.094000000    -0.277000000    -0.559000000
H    -2.090000000    -0.556000000    -0.921000000
C    -0.360000000     0.819000000    -1.011000000
H    -0.824000000     1.408000000    -1.798000000
C     0.853000000     1.132000000    -0.394000000
H     1.436000000     2.009000000    -0.663000000
C     1.350000000     0.342000000     0.678000000
C     2.654000000     0.653000000     1.377000000
O     2.899000000     0.173000000     2.439000000
O     3.334000000     1.671000000     1.077000000
