14
-88.30777
C     0.899000000    -0.391000000     1.099000000
H     1.295000000    -0.788000000     2.030000000
C     0.053000000    -1.255000000     0.409000000
H    -0.178000000    -2.257000000     0.759000000
C    -0.726000000    -0.757000000    -0.684000000
H    -1.371000000    -1.404000000    -1.297000000
C    -0.647000000     0.578000000    -1.069000000
H    -1.349000000     0.978000000    -1.796000000
C     0.313000000     1.406000000    -0.416000000
H     0.388000000     2.474000000    -0.609000000
C     1.068000000     0.923000000     0.666000000
C     2.019000000     1.849000000     1.382000000
O     2.566000000     1.477000000     2.403000000
O     2.172000000     2.984000000     1.012000000
