14
-87.26569
C     1.071000000     0.718000000     0.672000000
H     1.817000000     1.138000000     1.342000000
C     0.083000000    -0.075000000     1.302000000
H    -0.018000000    -0.136000000     2.383000000
C    -0.925000000    -0.643000000     0.575000000
H    -1.716000000    -1.304000000     0.984000000
C    -0.867000000    -0.501000000    -0.813000000
H    -1.692000000    -1.087000000    -1.210000000
C     0.130000000     0.260000000    -1.469000000
H     0.117000000     0.452000000    -2.538000000
C     1.141000000     0.867000000    -0.727000000
C     2.275000000     1.665000000    -1.452000000
O     3.375000000     1.821000000    -0.885000000
O     2.104000000     2.162000000    -2.557000000
