14
-82.75024
C     1.396000000     0.123000000    -0.081000000
H     2.459000000     0.221000000    -0.287000000
C     0.584000000    -0.347000000    -1.100000000
H     0.940000000    -0.566000000    -2.104000000
C    -0.679000000    -0.580000000    -0.814000000
H    -1.259000000    -1.020000000    -1.691000000
C    -1.229000000    -0.206000000     0.436000000
H    -2.275000000    -0.216000000     0.730000000
C    -0.430000000     0.380000000     1.389000000
H    -0.931000000     0.740000000     2.285000000
C     0.946000000     0.486000000     1.163000000
C     1.859000000     1.250000000     2.143000000
O     1.392000000     1.414000000     3.240000000
O     2.940000000     1.624000000     1.771000000
