14
-87.01930
C     1.096000000    -0.276000000     1.024000000
H     1.859000000    -0.524000000     1.758000000
C     0.152000000    -1.186000000     0.579000000
H     0.071000000    -2.161000000     1.052000000
C    -0.839000000    -0.848000000    -0.371000000
H    -1.544000000    -1.576000000    -0.784000000
C    -0.810000000     0.411000000    -0.936000000
H    -1.529000000     0.687000000    -1.703000000
C     0.120000000     1.326000000    -0.541000000
H     0.096000000     2.359000000    -0.879000000
C     1.088000000     0.991000000     0.464000000
C     2.139000000     2.019000000     0.859000000
O     3.056000000     1.805000000     1.661000000
O     2.137000000     3.099000000     0.346000000
