14
-89.43218
C     0.911000000    -0.054000000     1.152000000
H     1.609000000    -0.197000000     1.974000000
C     0.132000000    -1.091000000     0.773000000
H     0.219000000    -2.047000000     1.284000000
C    -0.748000000    -0.954000000    -0.288000000
H    -1.243000000    -1.818000000    -0.671000000
C    -0.764000000     0.289000000    -0.971000000
H    -1.461000000     0.450000000    -1.789000000
C    -0.034000000     1.365000000    -0.617000000
H    -0.122000000     2.314000000    -1.139000000
C     0.930000000     1.166000000     0.421000000
C     1.819000000     2.325000000     0.822000000
O     2.865000000     2.078000000     1.455000000
O     1.535000000     3.472000000     0.522000000
