14
-85.51084
C     0.175000000    -0.356000000     1.399000000
H     0.478000000    -0.889000000     2.297000000
C    -0.553000000    -1.040000000     0.487000000
H    -1.046000000    -1.966000000     0.771000000
C    -0.781000000    -0.458000000    -0.803000000
H    -1.435000000    -1.057000000    -1.412000000
C    -0.199000000     0.765000000    -1.155000000
H    -0.291000000     1.068000000    -2.195000000
C     0.752000000     1.251000000    -0.269000000
H     1.379000000     2.112000000    -0.486000000
C     0.930000000     0.745000000     1.010000000
C     1.946000000     1.294000000     1.980000000
O     2.105000000     0.798000000     3.115000000
O     2.550000000     2.270000000     1.620000000
