14
-83.85559
C    -0.256000000    -0.891000000     1.155000000
H    -0.452000000    -1.632000000     1.925000000
C    -0.009000000    -1.309000000    -0.195000000
H    -0.075000000    -2.364000000    -0.446000000
C     0.255000000    -0.382000000    -1.215000000
H     0.509000000    -0.683000000    -2.196000000
C     0.320000000     0.952000000    -0.824000000
H     0.686000000     1.705000000    -1.517000000
C     0.212000000     1.353000000     0.534000000
H     0.279000000     2.420000000     0.734000000
C    -0.105000000     0.431000000     1.548000000
C    -0.440000000     0.847000000     2.986000000
O    -0.763000000     0.075000000     3.844000000
O    -0.542000000     2.034000000     3.308000000
