14
-79.22848
C    -0.434000000    -0.368000000     1.349000000
H    -0.750000000    -0.672000000     2.344000000
C    -0.189000000    -1.271000000     0.354000000
H    -0.230000000    -2.325000000     0.617000000
C     0.094000000    -0.822000000    -0.851000000
H     0.191000000    -1.542000000    -1.659000000
C     0.212000000     0.571000000    -1.169000000
H     0.581000000     0.885000000    -2.142000000
C     0.091000000     1.459000000    -0.184000000
H     0.247000000     2.489000000    -0.496000000
C    -0.240000000     1.028000000     1.112000000
C    -0.526000000     2.060000000     2.123000000
O    -1.061000000     1.708000000     3.137000000
O     0.067000000     3.132000000     1.986000000
