14
-83.40239
C     0.205000000    -1.142000000     0.819000000
H     0.186000000    -2.124000000     1.286000000
C    -0.142000000    -1.135000000    -0.519000000
H    -0.314000000    -2.053000000    -1.076000000
C    -0.320000000     0.017000000    -1.220000000
H    -0.710000000    -0.107000000    -2.254000000
C     0.051000000     1.189000000    -0.609000000
H    -0.009000000     2.118000000    -1.171000000
C     0.347000000     1.193000000     0.760000000
H     0.607000000     2.122000000     1.262000000
C     0.479000000     0.020000000     1.507000000
C     0.768000000    -0.074000000     3.090000000
O     0.662000000    -1.148000000     3.671000000
O     1.141000000     0.874000000     3.726000000
