14
-79.96888
C     0.273000000    -1.231000000     0.852000000
H     0.338000000    -2.174000000     1.387000000
C     0.338000000    -1.137000000    -0.545000000
H     0.717000000    -2.056000000    -0.983000000
C     0.099000000    -0.001000000    -1.259000000
H     0.202000000    -0.078000000    -2.358000000
C    -0.085000000     1.194000000    -0.486000000
H    -0.156000000     2.160000000    -0.980000000
C    -0.296000000     1.166000000     0.866000000
H    -0.541000000     2.011000000     1.505000000
C    -0.092000000    -0.067000000     1.557000000
C    -0.360000000    -0.063000000     3.036000000
O    -0.294000000    -1.093000000     3.665000000
O    -0.707000000     0.898000000     3.662000000
