14
-87.09011
C    -0.139000000    -1.475000000     0.129000000
H    -0.228000000    -2.556000000     0.056000000
C     0.678000000    -0.785000000    -0.850000000
H     1.101000000    -1.313000000    -1.701000000
C     0.770000000     0.594000000    -0.827000000
H     1.329000000     1.178000000    -1.541000000
C     0.207000000     1.272000000     0.198000000
H     0.204000000     2.359000000     0.206000000
C    -0.572000000     0.554000000     1.143000000
H    -1.243000000     1.116000000     1.787000000
C    -0.853000000    -0.780000000     1.125000000
C    -1.723000000    -1.511000000     2.143000000
O    -1.883000000    -2.710000000     2.056000000
O    -2.231000000    -0.801000000     3.011000000
