14
-81.56768
C    -0.217000000    -1.084000000     0.924000000
H    -0.555000000    -1.908000000     1.547000000
C    -0.344000000    -1.229000000    -0.493000000
H    -0.686000000    -2.139000000    -0.980000000
C     0.006000000    -0.083000000    -1.254000000
H    -0.094000000    -0.190000000    -2.324000000
C     0.363000000     1.045000000    -0.638000000
H     0.461000000     1.919000000    -1.278000000
C     0.392000000     1.197000000     0.764000000
H     0.600000000     2.173000000     1.194000000
C     0.150000000     0.087000000     1.601000000
C     0.102000000     0.026000000     3.111000000
O    -0.210000000    -0.935000000     3.720000000
O     0.508000000     1.015000000     3.690000000
