14
-81.68660
C     0.677000000    -1.115000000     0.795000000
H     1.268000000    -1.916000000     1.233000000
C     0.464000000    -1.082000000    -0.575000000
H     0.777000000    -1.969000000    -1.121000000
C    -0.186000000    -0.057000000    -1.179000000
H    -0.439000000    -0.225000000    -2.184000000
C    -0.559000000     1.014000000    -0.474000000
H    -0.929000000     1.911000000    -0.963000000
C    -0.251000000     1.098000000     0.888000000
H    -0.495000000     2.051000000     1.351000000
C     0.299000000    -0.005000000     1.534000000
C     0.541000000     0.036000000     3.000000000
O     0.899000000    -0.941000000     3.630000000
O     0.192000000     1.010000000     3.655000000
