14
-81.72233
C    -0.280000000    -1.055000000     0.975000000
H    -0.468000000    -1.930000000     1.593000000
C     0.144000000    -1.257000000    -0.340000000
H     0.134000000    -2.233000000    -0.818000000
C     0.318000000    -0.200000000    -1.190000000
H     0.545000000    -0.467000000    -2.306000000
C     0.129000000     1.064000000    -0.705000000
H     0.364000000     1.989000000    -1.226000000
C    -0.203000000     1.258000000     0.590000000
H    -0.423000000     2.277000000     0.898000000
C    -0.408000000     0.220000000     1.460000000
C    -0.705000000     0.600000000     2.964000000
O    -0.729000000    -0.285000000     3.812000000
O    -0.932000000     1.741000000     3.329000000
