14
-91.32128
C    -0.585000000    -1.153000000     0.750000000
H    -0.797000000    -2.125000000     1.188000000
C    -0.003000000    -1.175000000    -0.580000000
H     0.299000000    -2.138000000    -0.983000000
C     0.490000000     0.015000000    -1.127000000
H     1.009000000    -0.008000000    -2.089000000
C     0.341000000     1.238000000    -0.477000000
H     0.765000000     2.128000000    -0.935000000
C    -0.224000000     1.235000000     0.799000000
H    -0.336000000     2.159000000     1.360000000
C    -0.732000000     0.049000000     1.383000000
C    -1.359000000     0.020000000     2.745000000
O    -1.695000000    -1.089000000     3.169000000
O    -1.412000000     1.021000000     3.485000000
