14
-79.89735
C     0.046000000    -0.992000000     1.149000000
H    -0.113000000    -1.782000000     1.879000000
C     0.191000000    -1.366000000    -0.176000000
H     0.133000000    -2.396000000    -0.519000000
C     0.337000000    -0.314000000    -1.134000000
H     0.532000000    -0.512000000    -2.127000000
C     0.219000000     1.065000000    -0.741000000
H     0.316000000     1.879000000    -1.454000000
C    -0.121000000     1.361000000     0.520000000
H    -0.217000000     2.371000000     0.908000000
C    -0.173000000     0.359000000     1.500000000
C    -0.436000000     0.751000000     2.905000000
O    -0.657000000    -0.121000000     3.747000000
O    -0.701000000     1.871000000     3.135000000
