14
-87.66135
C     0.146000000    -1.094000000     0.934000000
H     0.019000000    -1.930000000     1.617000000
C    -0.034000000    -1.258000000    -0.451000000
H    -0.088000000    -2.294000000    -0.775000000
C    -0.141000000    -0.067000000    -1.232000000
H    -0.287000000    -0.165000000    -2.284000000
C    -0.198000000     1.169000000    -0.616000000
H    -0.104000000     2.058000000    -1.235000000
C     0.113000000     1.251000000     0.736000000
H     0.234000000     2.226000000     1.201000000
C     0.194000000     0.149000000     1.539000000
C     0.348000000     0.180000000     3.042000000
O    -0.350000000    -0.644000000     3.635000000
O     1.051000000     0.986000000     3.605000000
