14
-87.83563
C     0.992000000    -0.979000000     0.465000000
H     1.589000000    -1.828000000     0.788000000
C     0.151000000    -1.120000000    -0.647000000
H     0.195000000    -2.018000000    -1.259000000
C    -0.767000000    -0.129000000    -0.908000000
H    -1.398000000    -0.204000000    -1.798000000
C    -0.806000000     1.045000000    -0.187000000
H    -1.496000000     1.815000000    -0.522000000
C     0.109000000     1.259000000     0.881000000
H     0.084000000     2.199000000     1.426000000
C     0.967000000     0.215000000     1.234000000
C     1.811000000     0.300000000     2.445000000
O     2.473000000    -0.662000000     2.805000000
O     1.707000000     1.236000000     3.187000000
