14
-77.18164
C     1.418000000     0.213000000     0.271000000
H     2.500000000     0.319000000     0.270000000
C     0.858000000    -0.058000000    -0.998000000
H     1.406000000    -0.199000000    -1.927000000
C    -0.503000000    -0.177000000    -1.036000000
H    -0.952000000    -0.208000000    -1.974000000
C    -1.284000000    -0.166000000     0.079000000
H    -2.356000000    -0.335000000     0.016000000
C    -0.747000000     0.129000000     1.276000000
H    -1.341000000     0.088000000     2.185000000
C     0.648000000     0.261000000     1.436000000
C     1.357000000     0.567000000     2.765000000
O     2.482000000     0.230000000     2.963000000
O     0.669000000     0.808000000     3.728000000
