14
-80.66616
C     0.694000000    -0.973000000     0.884000000
H     1.285000000    -1.751000000     1.362000000
C     0.265000000    -1.237000000    -0.411000000
H     0.474000000    -2.240000000    -0.775000000
C    -0.422000000    -0.262000000    -1.121000000
H    -0.685000000    -0.489000000    -2.192000000
C    -0.552000000     1.013000000    -0.612000000
H    -0.971000000     1.847000000    -1.170000000
C    -0.020000000     1.314000000     0.647000000
H    -0.084000000     2.341000000     0.998000000
C     0.537000000     0.318000000     1.480000000
C     0.977000000     0.632000000     2.865000000
O     1.473000000    -0.175000000     3.576000000
O     1.087000000     1.797000000     3.260000000
