14
-83.06828
C     1.164000000    -0.609000000     0.640000000
H     1.992000000    -1.076000000     1.169000000
C     0.602000000    -1.118000000    -0.533000000
H     0.945000000    -2.031000000    -1.012000000
C    -0.550000000    -0.455000000    -1.018000000
H    -1.053000000    -0.878000000    -1.848000000
C    -1.078000000     0.628000000    -0.321000000
H    -1.899000000     1.201000000    -0.743000000
C    -0.512000000     1.176000000     0.800000000
H    -0.804000000     2.103000000     1.286000000
C     0.662000000     0.544000000     1.291000000
C     1.369000000     1.192000000     2.435000000
O     0.757000000     1.853000000     3.227000000
O     2.526000000     0.967000000     2.695000000
