14
-82.94269
C     0.992000000    -0.977000000     0.540000000
H     1.846000000    -1.598000000     0.797000000
C     0.714000000    -0.715000000    -0.782000000
H     1.372000000    -1.251000000    -1.460000000
C    -0.267000000     0.191000000    -1.192000000
H    -0.453000000     0.307000000    -2.223000000
C    -1.080000000     0.794000000    -0.233000000
H    -1.847000000     1.501000000    -0.537000000
C    -0.800000000     0.572000000     1.100000000
H    -1.496000000     1.108000000     1.741000000
C     0.250000000    -0.320000000     1.528000000
C     0.633000000    -0.454000000     2.932000000
O     1.802000000    -0.750000000     3.197000000
O    -0.091000000    -0.253000000     3.867000000
