14
-85.28719
C     0.639000000    -1.345000000     0.060000000
H     1.155000000    -2.295000000    -0.053000000
C     0.239000000    -0.655000000    -1.114000000
H     0.368000000    -1.171000000    -2.062000000
C    -0.405000000     0.621000000    -1.032000000
H    -0.814000000     1.087000000    -1.931000000
C    -0.523000000     1.122000000     0.242000000
H    -0.904000000     2.139000000     0.224000000
C    -0.065000000     0.519000000     1.426000000
H    -0.088000000     1.055000000     2.372000000
C     0.415000000    -0.774000000     1.324000000
C     0.811000000    -1.525000000     2.555000000
O     1.327000000    -2.603000000     2.451000000
O     0.590000000    -1.112000000     3.685000000
