14
-80.90970
C     1.135000000     0.431000000     0.872000000
H     2.011000000     0.893000000     1.319000000
C     1.073000000     0.376000000    -0.558000000
H     1.960000000     0.708000000    -1.091000000
C    -0.021000000    -0.011000000    -1.302000000
H     0.052000000    -0.085000000    -2.384000000
C    -1.132000000    -0.419000000    -0.523000000
H    -2.001000000    -0.845000000    -1.017000000
C    -1.120000000    -0.384000000     0.916000000
H    -1.954000000    -0.714000000     1.530000000
C    -0.001000000    -0.011000000     1.583000000
C     0.092000000    -0.138000000     3.088000000
O     1.058000000     0.256000000     3.699000000
O    -0.793000000    -0.578000000     3.795000000
