14
-92.43494
C     0.382000000     0.269000000     1.360000000
H     0.657000000     0.588000000     2.362000000
C     1.147000000     0.679000000     0.303000000
H     2.037000000     1.286000000     0.447000000
C     0.718000000     0.210000000    -0.945000000
H     1.317000000     0.371000000    -1.857000000
C    -0.485000000    -0.542000000    -1.140000000
H    -0.784000000    -0.831000000    -2.144000000
C    -1.224000000    -0.879000000    -0.010000000
H    -2.133000000    -1.437000000    -0.217000000
C    -0.809000000    -0.471000000     1.251000000
C    -1.690000000    -0.753000000     2.417000000
O    -1.176000000    -0.754000000     3.530000000
O    -2.892000000    -0.995000000     2.231000000
