14
-82.22461
C     1.259000000    -0.299000000     0.804000000
H     2.158000000    -0.593000000     1.341000000
C     0.877000000    -0.873000000    -0.424000000
H     1.418000000    -1.743000000    -0.789000000
C    -0.363000000    -0.545000000    -1.037000000
H    -0.641000000    -1.164000000    -1.987000000
C    -1.146000000     0.504000000    -0.530000000
H    -2.100000000     0.779000000    -0.971000000
C    -0.749000000     1.043000000     0.680000000
H    -1.371000000     1.827000000     1.104000000
C     0.452000000     0.748000000     1.295000000
C     0.913000000     1.362000000     2.578000000
O     0.130000000     2.078000000     3.174000000
O     1.831000000     0.858000000     3.271000000
