14
-89.46741
C     0.595000000    -0.511000000     1.308000000
H     1.147000000    -0.878000000     2.169000000
C     1.256000000    -0.416000000     0.074000000
H     2.296000000    -0.732000000     0.055000000
C     0.614000000     0.114000000    -1.038000000
H     1.064000000     0.146000000    -1.993000000
C    -0.742000000     0.519000000    -0.968000000
H    -1.287000000     0.777000000    -1.872000000
C    -1.373000000     0.535000000     0.262000000
H    -2.365000000     0.950000000     0.418000000
C    -0.722000000    -0.018000000     1.401000000
C    -1.456000000    -0.178000000     2.670000000
O    -0.860000000    -0.510000000     3.685000000
O    -2.640000000     0.037000000     2.735000000
