14
-84.34447
C     0.666000000     0.009000000     1.332000000
H     1.279000000    -0.057000000     2.227000000
C     1.180000000     0.660000000     0.205000000
H     2.135000000     1.163000000     0.336000000
C     0.436000000     0.570000000    -0.959000000
H     0.689000000     1.151000000    -1.821000000
C    -0.787000000    -0.109000000    -1.016000000
H    -1.359000000    -0.110000000    -1.941000000
C    -1.289000000    -0.750000000     0.080000000
H    -2.244000000    -1.266000000     0.010000000
C    -0.609000000    -0.622000000     1.269000000
C    -1.142000000    -1.169000000     2.513000000
O    -0.434000000    -1.238000000     3.513000000
O    -2.233000000    -1.615000000     2.489000000
