14
-78.44301
C     1.102000000     0.246000000     0.874000000
H     2.012000000     0.473000000     1.423000000
C     1.076000000     0.384000000    -0.514000000
H     1.995000000     0.625000000    -1.042000000
C    -0.008000000     0.060000000    -1.254000000
H     0.108000000     0.033000000    -2.339000000
C    -1.191000000    -0.093000000    -0.520000000
H    -2.042000000    -0.212000000    -1.186000000
C    -1.210000000    -0.325000000     0.863000000
H    -2.171000000    -0.491000000     1.342000000
C    -0.069000000    -0.101000000     1.619000000
C     0.088000000    -0.434000000     3.053000000
O     1.118000000    -0.560000000     3.616000000
O    -0.946000000    -0.669000000     3.730000000
