14
-77.95111
C     1.220000000     0.007000000     0.858000000
H     2.115000000     0.149000000     1.457000000
C     1.206000000     0.203000000    -0.552000000
H     2.101000000     0.398000000    -1.138000000
C    -0.010000000     0.202000000    -1.241000000
H    -0.036000000     0.227000000    -2.365000000
C    -1.243000000    -0.080000000    -0.494000000
H    -2.168000000    -0.072000000    -1.065000000
C    -1.193000000    -0.242000000     0.849000000
H    -2.188000000    -0.380000000     1.265000000
C    -0.011000000    -0.191000000     1.589000000
C     0.030000000    -0.379000000     3.065000000
O     1.106000000    -0.635000000     3.557000000
O    -0.934000000    -0.294000000     3.707000000
