14
-86.71772
C     1.331000000     0.471000000     0.315000000
H     2.376000000     0.720000000     0.479000000
C     0.953000000     0.022000000    -0.944000000
H     1.650000000    -0.017000000    -1.777000000
C    -0.384000000    -0.232000000    -1.123000000
H    -0.646000000    -0.644000000    -2.161000000
C    -1.361000000    -0.069000000    -0.147000000
H    -2.329000000    -0.516000000    -0.355000000
C    -0.914000000     0.232000000     1.150000000
H    -1.601000000     0.325000000     1.987000000
C     0.445000000     0.536000000     1.376000000
C     0.954000000     0.765000000     2.825000000
O     2.109000000     0.982000000     3.045000000
O     0.116000000     0.911000000     3.719000000
