14
-75.23627
C     1.363000000    -0.064000000     0.672000000
H     2.398000000    -0.100000000     1.003000000
C     1.058000000    -0.154000000    -0.696000000
H     1.838000000    -0.374000000    -1.421000000
C    -0.217000000    -0.073000000    -1.216000000
H    -0.585000000    -0.444000000    -2.165000000
C    -1.257000000     0.113000000    -0.337000000
H    -2.233000000    -0.118000000    -0.754000000
C    -1.032000000     0.293000000     0.998000000
H    -1.848000000     0.477000000     1.692000000
C     0.280000000     0.247000000     1.565000000
C     0.496000000     0.384000000     3.053000000
O     1.488000000     0.842000000     3.402000000
O    -0.387000000     0.029000000     3.818000000
