14
-84.28740
C     1.389000000    -0.465000000     0.371000000
H     2.418000000    -0.764000000     0.555000000
C     1.043000000     0.097000000    -0.877000000
H     1.745000000     0.159000000    -1.705000000
C    -0.301000000     0.395000000    -1.119000000
H    -0.589000000     0.824000000    -2.132000000
C    -1.245000000     0.211000000    -0.148000000
H    -2.305000000     0.309000000    -0.365000000
C    -0.889000000    -0.209000000     1.128000000
H    -1.753000000    -0.230000000     1.787000000
C     0.445000000    -0.570000000     1.431000000
C     0.829000000    -1.021000000     2.813000000
O     1.970000000    -1.041000000     3.133000000
O    -0.017000000    -1.336000000     3.624000000
