14
-80.49966
C     1.077000000    -0.417000000     0.829000000
H     1.966000000    -0.748000000     1.360000000
C     0.894000000    -0.788000000    -0.487000000
H     1.671000000    -1.371000000    -0.975000000
C    -0.211000000    -0.324000000    -1.141000000
H    -0.380000000    -0.629000000    -2.199000000
C    -1.132000000     0.504000000    -0.586000000
H    -1.919000000     0.802000000    -1.274000000
C    -0.989000000     0.849000000     0.767000000
H    -1.650000000     1.624000000     1.147000000
C     0.117000000     0.395000000     1.512000000
C     0.342000000     0.922000000     2.910000000
O    -0.469000000     1.590000000     3.533000000
O     1.252000000     0.506000000     3.597000000
