14
-80.58919
C     1.108000000     0.427000000     0.839000000
H     1.990000000     0.795000000     1.357000000
C     1.201000000     0.077000000    -0.553000000
H     2.178000000     0.148000000    -1.025000000
C     0.030000000    -0.302000000    -1.196000000
H     0.025000000    -0.632000000    -2.213000000
C    -1.169000000    -0.287000000    -0.487000000
H    -2.075000000    -0.431000000    -1.070000000
C    -1.244000000     0.122000000     0.817000000
H    -2.212000000     0.218000000     1.303000000
C    -0.063000000     0.325000000     1.584000000
C    -0.074000000     0.831000000     2.983000000
O     0.889000000     1.322000000     3.466000000
O    -1.088000000     0.774000000     3.593000000
