14
-88.70927
C     0.299000000     1.445000000     0.249000000
H     0.521000000     2.499000000     0.391000000
C     0.953000000     0.644000000    -0.701000000
H     1.728000000     1.121000000    -1.295000000
C     0.637000000    -0.713000000    -0.796000000
H     1.100000000    -1.376000000    -1.533000000
C    -0.313000000    -1.219000000     0.090000000
H    -0.431000000    -2.298000000     0.025000000
C    -0.985000000    -0.476000000     0.969000000
H    -1.711000000    -0.947000000     1.627000000
C    -0.747000000     0.920000000     1.003000000
C    -1.501000000     1.835000000     1.902000000
O    -1.067000000     2.950000000     2.081000000
O    -2.492000000     1.470000000     2.534000000
