14
-85.63648
C     1.265000000     0.769000000     0.334000000
H     2.065000000     1.491000000     0.473000000
C     0.886000000     0.330000000    -0.930000000
H     1.370000000     0.697000000    -1.831000000
C    -0.228000000    -0.471000000    -1.143000000
H    -0.402000000    -0.833000000    -2.183000000
C    -0.958000000    -0.795000000    -0.023000000
H    -1.878000000    -1.363000000    -0.132000000
C    -0.603000000    -0.323000000     1.251000000
H    -1.201000000    -0.706000000     2.074000000
C     0.531000000     0.445000000     1.487000000
C     0.725000000     1.028000000     2.854000000
O     1.539000000     1.917000000     3.045000000
O    -0.056000000     0.737000000     3.704000000
