14
-86.71641
C     0.539000000     1.310000000    -0.432000000
H     1.065000000     2.169000000    -0.840000000
C     1.016000000     0.075000000    -0.824000000
H     1.886000000    -0.014000000    -1.469000000
C     0.446000000    -1.124000000    -0.371000000
H     0.780000000    -2.115000000    -0.696000000
C    -0.715000000    -0.996000000     0.481000000
H    -1.183000000    -1.879000000     0.911000000
C    -1.244000000     0.268000000     0.790000000
H    -2.110000000     0.463000000     1.419000000
C    -0.579000000     1.438000000     0.421000000
C    -1.088000000     2.757000000     0.837000000
O    -0.504000000     3.812000000     0.719000000
O    -2.222000000     2.807000000     1.308000000
