14
-86.20129
C     0.896000000     1.162000000     0.220000000
H     1.704000000     1.887000000     0.269000000
C     1.239000000    -0.066000000    -0.396000000
H     2.282000000    -0.193000000    -0.676000000
C     0.304000000    -1.074000000    -0.565000000
H     0.603000000    -1.979000000    -1.012000000
C    -1.039000000    -0.863000000    -0.151000000
H    -1.850000000    -1.585000000    -0.098000000
C    -1.349000000     0.375000000     0.450000000
H    -2.347000000     0.442000000     0.875000000
C    -0.403000000     1.385000000     0.604000000
C    -0.827000000     2.650000000     1.359000000
O     0.066000000     3.455000000     1.669000000
O    -1.931000000     2.857000000     1.708000000
