14
-82.84771
C     0.960000000     1.091000000    -0.032000000
H     1.774000000     1.779000000    -0.245000000
C     0.960000000    -0.020000000    -0.884000000
H     1.709000000    -0.176000000    -1.656000000
C     0.039000000    -1.012000000    -0.674000000
H     0.126000000    -1.955000000    -1.260000000
C    -0.945000000    -0.890000000     0.249000000
H    -1.528000000    -1.793000000     0.411000000
C    -0.947000000     0.212000000     1.129000000
H    -1.605000000     0.318000000     1.988000000
C    -0.054000000     1.289000000     0.985000000
C     0.029000000     2.565000000     1.813000000
O     0.747000000     3.496000000     1.459000000
O    -0.716000000     2.796000000     2.764000000
