14
-84.23736
C     0.725000000     1.237000000    -0.464000000
H     1.312000000     2.067000000    -0.847000000
C     0.911000000    -0.071000000    -0.930000000
H     1.752000000    -0.300000000    -1.580000000
C     0.137000000    -1.137000000    -0.431000000
H     0.370000000    -2.187000000    -0.806000000
C    -0.748000000    -0.866000000     0.595000000
H    -1.368000000    -1.731000000     0.812000000
C    -0.833000000     0.392000000     1.201000000
H    -1.509000000     0.542000000     2.039000000
C    -0.136000000     1.456000000     0.616000000
C    -0.413000000     2.856000000     1.074000000
O     0.092000000     3.777000000     0.489000000
O    -1.197000000     3.070000000     1.947000000
