14
-88.50180
C     1.269000000     0.824000000    -0.044000000
H     2.286000000     1.206000000    -0.076000000
C     1.020000000    -0.365000000    -0.736000000
H     1.779000000    -0.805000000    -1.378000000
C    -0.210000000    -0.990000000    -0.644000000
H    -0.161000000    -1.922000000    -1.270000000
C    -1.162000000    -0.507000000     0.205000000
H    -2.089000000    -1.052000000     0.361000000
C    -0.952000000     0.674000000     0.839000000
H    -1.768000000     1.080000000     1.432000000
C     0.251000000     1.391000000     0.725000000
C     0.483000000     2.628000000     1.568000000
O     1.419000000     3.314000000     1.233000000
O    -0.257000000     2.916000000     2.515000000
