14
-81.39008
C     1.058000000     0.658000000    -0.827000000
H     1.756000000     1.051000000    -1.561000000
C     0.249000000    -0.433000000    -1.200000000
H     0.429000000    -0.918000000    -2.156000000
C    -0.769000000    -0.894000000    -0.308000000
H    -1.447000000    -1.661000000    -0.610000000
C    -0.845000000    -0.369000000     0.923000000
H    -1.553000000    -0.822000000     1.613000000
C    -0.044000000     0.690000000     1.337000000
H    -0.042000000     1.017000000     2.374000000
C     0.893000000     1.218000000     0.429000000
C     1.891000000     2.255000000     0.888000000
O     2.712000000     2.643000000     0.112000000
O     1.721000000     2.899000000     1.886000000
