14
-82.48608
C     0.373000000     1.024000000    -0.940000000
H     0.700000000     1.673000000    -1.749000000
C     0.685000000    -0.262000000    -1.142000000
H     1.200000000    -0.589000000    -2.041000000
C     0.293000000    -1.213000000    -0.174000000
H     0.482000000    -2.263000000    -0.354000000
C    -0.497000000    -0.787000000     0.882000000
H    -0.849000000    -1.453000000     1.665000000
C    -0.826000000     0.585000000     1.170000000
H    -1.310000000     0.913000000     2.087000000
C    -0.357000000     1.524000000     0.199000000
C    -0.416000000     3.027000000     0.454000000
O    -0.161000000     3.850000000    -0.385000000
O    -0.829000000     3.419000000     1.531000000
