14
-81.65673
C     0.909000000     0.431000000     0.985000000
H     1.728000000     0.621000000     1.674000000
C     0.952000000    -0.816000000     0.415000000
H     1.744000000    -1.536000000     0.604000000
C    -0.012000000    -1.087000000    -0.558000000
H    -0.020000000    -2.035000000    -1.145000000
C    -0.903000000    -0.154000000    -0.918000000
H    -1.584000000    -0.364000000    -1.739000000
C    -0.934000000     1.116000000    -0.297000000
H    -1.704000000     1.845000000    -0.538000000
C     0.006000000     1.461000000     0.700000000
C    -0.001000000     2.707000000     1.520000000
O     0.755000000     2.866000000     2.463000000
O    -0.770000000     3.636000000     1.344000000
