14
-86.76162
C     1.409000000     0.321000000     0.185000000
H     2.489000000     0.407000000     0.273000000
C     0.833000000    -0.998000000     0.146000000
H     1.444000000    -1.897000000     0.170000000
C    -0.533000000    -1.162000000    -0.115000000
H    -0.961000000    -2.196000000    -0.125000000
C    -1.287000000    -0.017000000    -0.219000000
H    -2.365000000    -0.043000000    -0.361000000
C    -0.740000000     1.276000000    -0.143000000
H    -1.433000000     2.094000000    -0.325000000
C     0.667000000     1.454000000     0.094000000
C     1.274000000     2.859000000     0.266000000
O     2.287000000     2.991000000     0.930000000
O     0.798000000     3.831000000    -0.259000000
