14
-82.90931
C     1.287000000     0.611000000     0.267000000
H     2.352000000     0.823000000     0.314000000
C     1.025000000    -0.729000000    -0.036000000
H     1.816000000    -1.451000000    -0.224000000
C    -0.263000000    -1.200000000    -0.086000000
H    -0.443000000    -2.247000000    -0.497000000
C    -1.327000000    -0.329000000     0.016000000
H    -2.284000000    -0.713000000    -0.330000000
C    -1.066000000     1.035000000     0.131000000
H    -1.850000000     1.788000000     0.127000000
C     0.272000000     1.573000000     0.233000000
C     0.478000000     3.049000000     0.467000000
O     1.611000000     3.395000000     0.834000000
O    -0.470000000     3.823000000     0.641000000
