14
-86.29137
C     1.462000000     0.154000000    -0.128000000
H     2.530000000     0.026000000     0.028000000
C     0.671000000    -0.868000000    -0.683000000
H     1.127000000    -1.673000000    -1.253000000
C    -0.691000000    -0.924000000    -0.487000000
H    -1.307000000    -1.829000000    -0.736000000
C    -1.250000000     0.202000000     0.041000000
H    -2.323000000     0.229000000     0.211000000
C    -0.523000000     1.254000000     0.512000000
H    -0.943000000     2.130000000     1.001000000
C     0.843000000     1.249000000     0.410000000
C     1.675000000     2.319000000     1.036000000
O     2.894000000     2.301000000     1.007000000
O     1.075000000     3.240000000     1.584000000
