14
-82.96308
C     1.380000000     0.235000000     0.522000000
H     2.406000000     0.479000000     0.785000000
C     1.066000000    -0.753000000    -0.413000000
H     1.823000000    -1.333000000    -0.935000000
C    -0.275000000    -0.882000000    -0.774000000
H    -0.608000000    -1.594000000    -1.606000000
C    -1.213000000     0.010000000    -0.305000000
H    -2.190000000    -0.060000000    -0.777000000
C    -0.932000000     0.893000000     0.698000000
H    -1.649000000     1.660000000     0.982000000
C     0.364000000     0.984000000     1.204000000
C     0.595000000     1.995000000     2.286000000
O     1.633000000     1.944000000     2.843000000
O    -0.204000000     2.889000000     2.435000000
