14
-83.79173
C     1.453000000     0.104000000     0.193000000
H     2.526000000    -0.071000000     0.174000000
C     0.742000000    -1.008000000    -0.180000000
H     1.252000000    -1.945000000    -0.391000000
C    -0.608000000    -1.017000000    -0.218000000
H    -1.066000000    -1.877000000    -0.587000000
C    -1.300000000     0.149000000     0.087000000
H    -2.386000000     0.184000000     0.119000000
C    -0.629000000     1.359000000     0.332000000
H    -1.208000000     2.276000000     0.405000000
C     0.819000000     1.307000000     0.433000000
C     1.591000000     2.589000000     0.449000000
O     2.795000000     2.569000000     0.161000000
O     1.025000000     3.657000000     0.526000000
