14
-83.02029
C     1.210000000     0.024000000     0.836000000
H     2.016000000    -0.061000000     1.560000000
C     0.698000000    -1.112000000     0.226000000
H     1.139000000    -2.103000000     0.292000000
C    -0.369000000    -0.932000000    -0.607000000
H    -0.765000000    -1.779000000    -1.123000000
C    -1.081000000     0.277000000    -0.685000000
H    -2.001000000     0.396000000    -1.251000000
C    -0.573000000     1.381000000    -0.034000000
H    -1.140000000     2.306000000     0.037000000
C     0.639000000     1.266000000     0.650000000
C     1.169000000     2.421000000     1.352000000
O     1.996000000     2.303000000     2.192000000
O     0.506000000     3.423000000     1.146000000
