14
-83.07417
C     1.304000000    -0.615000000     0.427000000
H     2.105000000    -1.138000000     0.943000000
C     0.183000000    -1.305000000     0.039000000
H     0.080000000    -2.371000000     0.222000000
C    -0.929000000    -0.599000000    -0.443000000
H    -1.912000000    -1.059000000    -0.636000000
C    -0.940000000     0.771000000    -0.562000000
H    -1.837000000     1.296000000    -0.878000000
C     0.144000000     1.481000000    -0.085000000
H     0.119000000     2.547000000    -0.294000000
C     1.307000000     0.782000000     0.334000000
C     2.332000000     1.517000000     1.101000000
O     3.385000000     1.011000000     1.504000000
O     2.121000000     2.686000000     1.286000000
