14
-87.02083
C     1.412000000    -0.563000000     0.268000000
H     2.345000000    -1.060000000     0.526000000
C     0.229000000    -1.320000000    -0.061000000
H     0.257000000    -2.403000000    -0.151000000
C    -0.997000000    -0.703000000    -0.123000000
H    -1.915000000    -1.274000000    -0.443000000
C    -1.075000000     0.698000000    -0.096000000
H    -2.039000000     1.179000000    -0.241000000
C     0.029000000     1.475000000     0.093000000
H    -0.020000000     2.558000000     0.164000000
C     1.256000000     0.857000000     0.327000000
C     2.571000000     1.612000000     0.489000000
O     3.457000000     1.065000000     1.044000000
O     2.639000000     2.820000000     0.149000000
