14
-88.33923
C     0.557000000    -0.834000000     1.129000000
H     0.832000000    -1.525000000     1.922000000
C    -0.453000000    -1.223000000     0.233000000
H    -0.921000000    -2.200000000     0.325000000
C    -0.898000000    -0.376000000    -0.747000000
H    -1.613000000    -0.667000000    -1.459000000
C    -0.346000000     0.919000000    -0.824000000
H    -0.762000000     1.562000000    -1.596000000
C     0.773000000     1.215000000    -0.055000000
H     1.192000000     2.218000000    -0.029000000
C     1.262000000     0.375000000     0.939000000
C     2.329000000     0.848000000     1.899000000
O     2.596000000     0.269000000     2.907000000
O     2.867000000     1.860000000     1.511000000
