14
-88.81914
C     1.201000000    -0.432000000    -0.854000000
H     2.034000000    -0.504000000    -1.548000000
C    -0.134000000    -0.265000000    -1.326000000
H    -0.418000000    -0.444000000    -2.360000000
C    -1.125000000     0.064000000    -0.427000000
H    -2.169000000     0.162000000    -0.762000000
C    -0.816000000     0.315000000     0.922000000
H    -1.630000000     0.607000000     1.580000000
C     0.472000000     0.196000000     1.368000000
H     0.659000000     0.202000000     2.439000000
C     1.495000000    -0.205000000     0.511000000
C     2.924000000    -0.214000000     0.953000000
O     3.852000000    -0.525000000     0.215000000
O     3.174000000     0.055000000     2.109000000
