14
-75.34097
C     0.281000000    -1.389000000     0.251000000
H     0.351000000    -2.450000000     0.481000000
C    -0.624000000    -1.019000000    -0.738000000
H    -1.321000000    -1.717000000    -1.194000000
C    -0.831000000     0.395000000    -0.866000000
H    -1.445000000     0.638000000    -1.709000000
C     0.020000000     1.288000000    -0.184000000
H    -0.188000000     2.354000000    -0.232000000
C     0.951000000     0.814000000     0.804000000
H     1.465000000     1.566000000     1.398000000
C     1.077000000    -0.561000000     1.006000000
C     2.015000000    -1.053000000     1.992000000
O     2.122000000    -2.245000000     2.199000000
O     2.917000000    -0.404000000     2.527000000
