14
-90.47823
C     1.478000000     0.039000000    -0.074000000
H     2.546000000    -0.088000000    -0.232000000
C     0.637000000    -0.160000000    -1.159000000
H     0.974000000    -0.396000000    -2.165000000
C    -0.747000000    -0.238000000    -0.977000000
H    -1.416000000    -0.386000000    -1.824000000
C    -1.266000000    -0.090000000     0.336000000
H    -2.331000000    -0.046000000     0.549000000
C    -0.426000000     0.096000000     1.370000000
H    -0.840000000     0.207000000     2.369000000
C     0.928000000     0.213000000     1.243000000
C     1.843000000     0.617000000     2.354000000
O     3.050000000     0.507000000     2.201000000
O     1.316000000     1.186000000     3.325000000
