14
-86.38700
C     1.033000000    -0.050000000    -1.105000000
H     1.705000000    -0.055000000    -1.960000000
C    -0.246000000    -0.564000000    -1.241000000
H    -0.670000000    -1.006000000    -2.139000000
C    -1.153000000    -0.483000000    -0.163000000
H    -2.157000000    -0.938000000    -0.343000000
C    -0.750000000     0.183000000     0.987000000
H    -1.494000000     0.232000000     1.777000000
C     0.524000000     0.796000000     1.133000000
H     0.812000000     1.346000000     2.025000000
C     1.466000000     0.597000000     0.105000000
C     2.856000000     1.085000000     0.312000000
O     3.666000000     0.879000000    -0.549000000
O     3.218000000     1.404000000     1.433000000
