14
-90.80148
C     1.316000000    -0.608000000     0.088000000
H     2.233000000    -1.192000000     0.099000000
C     0.256000000    -1.093000000    -0.654000000
H     0.426000000    -1.967000000    -1.277000000
C    -0.986000000    -0.448000000    -0.617000000
H    -1.831000000    -0.791000000    -1.263000000
C    -1.101000000     0.740000000     0.135000000
H    -2.064000000     1.241000000     0.194000000
C    -0.051000000     1.220000000     0.857000000
H    -0.111000000     2.160000000     1.399000000
C     1.195000000     0.585000000     0.835000000
C     2.407000000     1.120000000     1.553000000
O     3.515000000     0.477000000     1.568000000
O     2.298000000     2.066000000     2.304000000
