14
-87.66919
C     1.120000000    -0.280000000    -0.942000000
H     1.894000000    -0.534000000    -1.662000000
C    -0.267000000    -0.335000000    -1.250000000
H    -0.597000000    -0.602000000    -2.250000000
C    -1.194000000     0.089000000    -0.262000000
H    -2.229000000     0.041000000    -0.395000000
C    -0.799000000     0.453000000     1.023000000
H    -1.531000000     0.804000000     1.745000000
C     0.588000000     0.404000000     1.331000000
H     0.933000000     0.557000000     2.350000000
C     1.516000000    -0.054000000     0.368000000
C     2.970000000    -0.403000000     0.724000000
O     3.738000000    -0.454000000    -0.201000000
O     3.293000000    -0.511000000     1.861000000
