14
-90.71757
C    -0.204000000    -0.859000000     1.163000000
H    -0.225000000    -1.657000000     1.901000000
C    -0.529000000    -1.159000000    -0.146000000
H    -0.880000000    -2.141000000    -0.454000000
C    -0.354000000    -0.246000000    -1.161000000
H    -0.558000000    -0.485000000    -2.195000000
C     0.026000000     1.073000000    -0.802000000
H     0.201000000     1.813000000    -1.579000000
C     0.363000000     1.365000000     0.492000000
H     0.647000000     2.371000000     0.792000000
C     0.291000000     0.419000000     1.505000000
C     0.919000000     0.629000000     2.905000000
O     1.420000000    -0.335000000     3.538000000
O     1.221000000     1.788000000     3.178000000
