14
-85.87580
C     0.560000000    -0.975000000     0.932000000
H     0.871000000    -1.783000000     1.588000000
C    -0.193000000    -1.289000000    -0.191000000
H    -0.471000000    -2.296000000    -0.490000000
C    -0.620000000    -0.306000000    -1.018000000
H    -1.204000000    -0.568000000    -1.894000000
C    -0.278000000     0.982000000    -0.700000000
H    -0.614000000     1.786000000    -1.350000000
C     0.348000000     1.357000000     0.448000000
H     0.482000000     2.386000000     0.773000000
C     0.858000000     0.329000000     1.248000000
C     1.515000000     0.667000000     2.537000000
O     1.511000000    -0.133000000     3.466000000
O     1.967000000     1.770000000     2.712000000
