14
-90.68332
C     0.858000000    -0.660000000     1.029000000
H     1.330000000    -1.180000000     1.858000000
C    -0.416000000    -1.046000000     0.605000000
H    -0.769000000    -2.028000000     0.909000000
C    -1.086000000    -0.399000000    -0.436000000
H    -1.998000000    -0.772000000    -0.851000000
C    -0.502000000     0.692000000    -1.013000000
H    -1.007000000     1.142000000    -1.864000000
C     0.733000000     1.239000000    -0.550000000
H     1.046000000     2.186000000    -0.981000000
C     1.370000000     0.543000000     0.523000000
C     2.678000000     1.115000000     1.144000000
O     3.208000000     0.499000000     2.081000000
O     3.137000000     2.203000000     0.781000000
