14
-80.34687
C     1.252000000    -0.143000000    -0.689000000
H     2.155000000    -0.443000000    -1.216000000
C     0.017000000    -0.612000000    -1.134000000
H    -0.082000000    -1.326000000    -1.948000000
C    -1.143000000    -0.191000000    -0.478000000
H    -2.152000000    -0.255000000    -1.016000000
C    -0.958000000     0.524000000     0.695000000
H    -1.790000000     0.715000000     1.368000000
C     0.258000000     0.897000000     1.078000000
H     0.318000000     1.412000000     2.033000000
C     1.429000000     0.560000000     0.460000000
C     2.786000000     0.894000000     0.945000000
O     3.674000000     0.090000000     0.539000000
O     2.885000000     1.633000000     1.926000000
