14
-87.06001
C     0.544000000    -0.482000000    -1.333000000
H     0.900000000    -0.758000000    -2.322000000
C    -0.766000000    -0.397000000    -1.024000000
H    -1.515000000    -0.778000000    -1.713000000
C    -1.204000000     0.011000000     0.241000000
H    -2.224000000     0.086000000     0.379000000
C    -0.288000000     0.321000000     1.237000000
H    -0.593000000     0.613000000     2.239000000
C     1.095000000     0.263000000     0.938000000
H     1.713000000     0.524000000     1.793000000
C     1.493000000    -0.096000000    -0.365000000
C     2.977000000     0.067000000    -0.777000000
O     3.419000000    -0.666000000    -1.650000000
O     3.727000000     0.746000000    -0.128000000
