14
-86.76678
C     1.195000000     0.007000000    -0.818000000
H     2.008000000    -0.122000000    -1.528000000
C    -0.053000000    -0.517000000    -1.239000000
H    -0.108000000    -0.990000000    -2.216000000
C    -1.089000000    -0.457000000    -0.338000000
H    -2.086000000    -0.791000000    -0.567000000
C    -0.933000000     0.080000000     0.940000000
H    -1.787000000     0.201000000     1.602000000
C     0.272000000     0.712000000     1.339000000
H     0.473000000     1.097000000     2.335000000
C     1.395000000     0.525000000     0.503000000
C     2.791000000     1.027000000     1.010000000
O     3.607000000     1.474000000     0.238000000
O     2.940000000     1.224000000     2.231000000
