14
-89.65961
C     0.348000000    -1.274000000    -0.701000000
H     0.370000000    -2.277000000    -1.119000000
C    -0.972000000    -0.742000000    -0.570000000
H    -1.802000000    -1.436000000    -0.679000000
C    -1.148000000     0.461000000     0.067000000
H    -2.104000000     0.818000000     0.209000000
C    -0.049000000     1.229000000     0.486000000
H    -0.229000000     2.171000000     0.999000000
C     1.263000000     0.768000000     0.273000000
H     2.134000000     1.341000000     0.579000000
C     1.481000000    -0.507000000    -0.365000000
C     2.932000000    -1.018000000    -0.436000000
O     3.125000000    -2.198000000    -0.534000000
O     3.863000000    -0.204000000    -0.255000000
