14
-87.60474
C     1.364000000    -0.544000000    -0.234000000
H     2.259000000    -1.050000000    -0.586000000
C     0.275000000    -0.600000000    -1.128000000
H     0.308000000    -1.213000000    -2.025000000
C    -0.939000000    -0.112000000    -0.768000000
H    -1.905000000    -0.241000000    -1.437000000
C    -1.073000000     0.538000000     0.439000000
H    -2.043000000     0.994000000     0.619000000
C     0.012000000     0.638000000     1.328000000
H    -0.107000000     1.042000000     2.331000000
C     1.263000000     0.178000000     0.992000000
C     2.365000000     0.288000000     1.974000000
O     3.522000000     0.246000000     1.558000000
O     2.113000000     0.348000000     3.210000000
