14
-89.08013
C     1.304000000    -0.717000000    -0.145000000
H     2.103000000    -1.420000000    -0.368000000
C     0.042000000    -1.268000000    -0.510000000
H    -0.076000000    -2.152000000    -1.131000000
C    -1.104000000    -0.530000000    -0.219000000
H    -2.059000000    -0.900000000    -0.458000000
C    -0.962000000     0.745000000     0.374000000
H    -1.843000000     1.294000000     0.696000000
C     0.286000000     1.235000000     0.661000000
H     0.374000000     2.235000000     1.079000000
C     1.452000000     0.520000000     0.462000000
C     2.830000000     1.136000000     0.717000000
O     3.755000000     0.567000000     0.175000000
O     2.938000000     2.098000000     1.407000000
