14
-91.21112
C     1.445000000    -0.074000000     0.199000000
H     2.518000000    -0.117000000     0.366000000
C     0.814000000    -0.366000000    -1.015000000
H     1.384000000    -0.694000000    -1.880000000
C    -0.558000000    -0.321000000    -1.049000000
H    -1.098000000    -0.411000000    -2.052000000
C    -1.337000000     0.028000000     0.071000000
H    -2.412000000     0.194000000     0.088000000
C    -0.663000000     0.267000000     1.259000000
H    -1.303000000     0.541000000     2.094000000
C     0.692000000     0.220000000     1.378000000
C     1.315000000     0.549000000     2.762000000
O     2.537000000     0.385000000     2.907000000
O     0.623000000     1.016000000     3.652000000
