14
-87.53687
C     1.012000000    -1.109000000     0.171000000
H     1.698000000    -1.943000000     0.299000000
C    -0.157000000    -1.201000000    -0.638000000
H    -0.439000000    -2.145000000    -1.099000000
C    -1.007000000    -0.077000000    -0.729000000
H    -1.979000000    -0.293000000    -1.230000000
C    -0.661000000     1.124000000    -0.128000000
H    -1.343000000     1.957000000    -0.286000000
C     0.455000000     1.189000000     0.662000000
H     0.569000000     2.179000000     1.095000000
C     1.275000000     0.107000000     0.879000000
C     2.558000000     0.284000000     1.753000000
O     3.449000000    -0.607000000     1.807000000
O     2.744000000     1.300000000     2.376000000
