14
-79.50540
C     1.490000000    -0.320000000     0.234000000
H     2.477000000    -0.672000000     0.524000000
C     0.633000000    -0.972000000    -0.696000000
H     0.897000000    -1.914000000    -1.170000000
C    -0.674000000    -0.532000000    -0.877000000
H    -1.310000000    -1.006000000    -1.646000000
C    -1.162000000     0.522000000    -0.124000000
H    -2.184000000     0.829000000    -0.332000000
C    -0.364000000     1.215000000     0.691000000
H    -0.665000000     2.195000000     1.053000000
C     0.935000000     0.749000000     0.971000000
C     1.739000000     1.314000000     2.076000000
O     2.927000000     1.051000000     2.306000000
O     1.285000000     2.124000000     2.854000000
