14
-84.96030
C     1.298000000    -0.479000000     0.474000000
H     2.252000000    -0.978000000     0.622000000
C     0.616000000    -0.996000000    -0.642000000
H     0.876000000    -1.862000000    -1.246000000
C    -0.603000000    -0.431000000    -0.965000000
H    -1.282000000    -0.912000000    -1.630000000
C    -1.061000000     0.696000000    -0.287000000
H    -2.034000000     1.140000000    -0.477000000
C    -0.269000000     1.234000000     0.743000000
H    -0.674000000     2.141000000     1.185000000
C     0.859000000     0.626000000     1.252000000
C     1.635000000     1.067000000     2.455000000
O     2.704000000     0.545000000     2.847000000
O     1.092000000     1.905000000     3.112000000
