14
-83.22885
C     1.377000000     0.068000000     0.537000000
H     2.411000000     0.119000000     0.869000000
C     1.052000000    -0.438000000    -0.723000000
H     1.793000000    -0.868000000    -1.391000000
C    -0.307000000    -0.478000000    -1.090000000
H    -0.514000000    -0.864000000    -2.090000000
C    -1.340000000    -0.080000000    -0.174000000
H    -2.339000000    -0.024000000    -0.601000000
C    -1.007000000     0.461000000     1.093000000
H    -1.835000000     0.832000000     1.691000000
C     0.404000000     0.501000000     1.450000000
C     0.745000000     1.182000000     2.710000000
O     1.977000000     1.355000000     2.982000000
O    -0.001000000     1.498000000     3.631000000
