14
-84.16065
C     1.354000000    -0.106000000    -0.494000000
H     2.313000000    -0.225000000    -0.991000000
C     0.444000000    -1.167000000    -0.488000000
H     0.648000000    -2.122000000    -0.966000000
C    -0.840000000    -0.912000000     0.127000000
H    -1.596000000    -1.652000000    -0.013000000
C    -1.108000000     0.278000000     0.724000000
H    -2.108000000     0.500000000     1.088000000
C    -0.162000000     1.307000000     0.656000000
H    -0.544000000     2.263000000     1.006000000
C     1.115000000     1.159000000     0.025000000
C     2.181000000     2.206000000    -0.112000000
O     3.304000000     1.970000000    -0.465000000
O     1.895000000     3.375000000     0.124000000
