14
-92.02656
C     1.086000000    -0.492000000    -0.839000000
H     1.817000000    -1.012000000    -1.452000000
C    -0.162000000    -1.113000000    -0.662000000
H    -0.414000000    -2.063000000    -1.127000000
C    -1.136000000    -0.522000000     0.185000000
H    -2.037000000    -1.056000000     0.259000000
C    -0.850000000     0.704000000     0.712000000
H    -1.590000000     1.238000000     1.303000000
C     0.441000000     1.317000000     0.552000000
H     0.695000000     2.249000000     1.051000000
C     1.467000000     0.742000000    -0.218000000
C     2.880000000     1.302000000    -0.319000000
O     3.665000000     0.679000000    -1.068000000
O     3.101000000     2.432000000     0.112000000
