14
-83.14979
C     1.430000000    -0.379000000     0.019000000
H     2.422000000    -0.824000000    -0.018000000
C     0.472000000    -0.864000000    -0.843000000
H     0.701000000    -1.703000000    -1.494000000
C    -0.824000000    -0.269000000    -0.847000000
H    -1.664000000    -0.645000000    -1.352000000
C    -1.153000000     0.656000000     0.083000000
H    -2.151000000     1.086000000     0.097000000
C    -0.214000000     1.107000000     1.014000000
H    -0.559000000     1.757000000     1.814000000
C     1.116000000     0.581000000     0.991000000
C     2.040000000     0.879000000     2.129000000
O     2.876000000     0.013000000     2.338000000
O     1.829000000     1.737000000     2.921000000
