14
-88.07385
C     0.946000000    -1.145000000    -0.127000000
H     1.625000000    -1.993000000    -0.116000000
C    -0.303000000    -1.152000000    -0.632000000
H    -0.735000000    -2.001000000    -1.157000000
C    -1.057000000     0.021000000    -0.542000000
H    -1.965000000    -0.079000000    -1.174000000
C    -0.521000000     1.162000000     0.046000000
H    -1.109000000     2.076000000     0.022000000
C     0.645000000     1.130000000     0.757000000
H     1.008000000     1.988000000     1.317000000
C     1.391000000    -0.048000000     0.621000000
C     2.689000000    -0.050000000     1.413000000
O     3.459000000    -0.995000000     1.376000000
O     2.877000000     0.920000000     2.169000000
