14
-83.88358
C    -0.221000000     0.456000000     1.389000000
H    -0.207000000     0.740000000     2.438000000
C     0.689000000    -0.483000000     0.995000000
H     1.400000000    -0.914000000     1.695000000
C     0.747000000    -0.925000000    -0.335000000
H     1.433000000    -1.688000000    -0.590000000
C    -0.062000000    -0.338000000    -1.289000000
H     0.033000000    -0.603000000    -2.339000000
C    -0.922000000     0.679000000    -0.903000000
H    -1.652000000     1.150000000    -1.557000000
C    -1.026000000     1.124000000     0.396000000
C    -2.102000000     2.192000000     0.791000000
O    -2.199000000     2.492000000     1.958000000
O    -2.862000000     2.656000000     0.020000000
