14
-89.06851
C     1.446000000     0.079000000    -0.199000000
H     2.509000000     0.042000000    -0.422000000
C     0.675000000    -1.035000000    -0.416000000
H     1.074000000    -1.888000000    -0.959000000
C    -0.666000000    -1.001000000    -0.134000000
H    -1.332000000    -1.862000000    -0.258000000
C    -1.276000000     0.133000000     0.396000000
H    -2.358000000     0.222000000     0.451000000
C    -0.464000000     1.203000000     0.716000000
H    -0.927000000     2.039000000     1.235000000
C     0.871000000     1.234000000     0.399000000
C     1.700000000     2.531000000     0.533000000
O     2.918000000     2.468000000     0.312000000
O     1.188000000     3.575000000     0.788000000
