14
-90.70157
C    -0.895000000    -1.032000000     0.641000000
H    -1.682000000    -1.703000000     0.976000000
C    -0.380000000    -1.066000000    -0.676000000
H    -0.599000000    -1.912000000    -1.323000000
C     0.469000000    -0.114000000    -1.146000000
H     0.951000000    -0.177000000    -2.103000000
C     0.776000000     1.044000000    -0.333000000
H     1.470000000     1.732000000    -0.809000000
C     0.273000000     1.128000000     0.985000000
H     0.534000000     1.988000000     1.596000000
C    -0.571000000     0.074000000     1.465000000
C    -1.188000000     0.199000000     2.865000000
O    -0.796000000     1.113000000     3.645000000
O    -1.927000000    -0.677000000     3.229000000
