14
-80.33263
C    -0.541000000     0.047000000     1.428000000
H    -0.789000000     0.022000000     2.486000000
C     0.290000000    -0.956000000     0.863000000
H     0.560000000    -1.866000000     1.392000000
C     0.702000000    -0.864000000    -0.504000000
H     1.338000000    -1.624000000    -0.964000000
C     0.229000000     0.150000000    -1.322000000
H     0.333000000     0.086000000    -2.402000000
C    -0.541000000     1.167000000    -0.742000000
H    -1.000000000     1.925000000    -1.371000000
C    -0.844000000     1.212000000     0.667000000
C    -1.563000000     2.299000000     1.255000000
O    -2.021000000     2.125000000     2.344000000
O    -1.555000000     3.434000000     0.791000000
