14
-86.67394
C     1.359000000    -0.488000000     0.453000000
H     2.256000000    -1.033000000     0.734000000
C     0.353000000    -1.278000000    -0.188000000
H     0.506000000    -2.348000000    -0.300000000
C    -0.862000000    -0.654000000    -0.554000000
H    -1.733000000    -1.173000000    -0.982000000
C    -1.103000000     0.704000000    -0.229000000
H    -2.105000000     1.093000000    -0.393000000
C    -0.060000000     1.392000000     0.306000000
H    -0.291000000     2.428000000     0.541000000
C     1.135000000     0.835000000     0.728000000
C     2.181000000     1.620000000     1.391000000
O     3.204000000     1.069000000     1.709000000
O     2.058000000     2.851000000     1.548000000
