14
-91.69623
C     0.973000000     0.226000000     1.057000000
H     1.774000000     0.330000000     1.785000000
C     1.323000000    -0.020000000    -0.266000000
H     2.351000000     0.132000000    -0.583000000
C     0.315000000    -0.285000000    -1.155000000
H     0.555000000    -0.368000000    -2.201000000
C    -1.034000000    -0.325000000    -0.761000000
H    -1.813000000    -0.557000000    -1.483000000
C    -1.381000000    -0.076000000     0.553000000
H    -2.424000000    -0.115000000     0.859000000
C    -0.364000000     0.210000000     1.515000000
C    -0.679000000     0.507000000     2.919000000
O     0.111000000     1.112000000     3.642000000
O    -1.830000000     0.291000000     3.283000000
