14
-81.54276
C    -0.949000000    -1.025000000     0.567000000
H    -1.496000000    -1.901000000     0.906000000
C    -0.295000000    -1.092000000    -0.691000000
H    -0.344000000    -1.999000000    -1.287000000
C     0.472000000    -0.001000000    -1.122000000
H     1.030000000    -0.015000000    -2.060000000
C     0.619000000     1.071000000    -0.304000000
H     1.184000000     1.931000000    -0.655000000
C     0.103000000     1.164000000     0.969000000
H     0.378000000     2.104000000     1.440000000
C    -0.693000000     0.135000000     1.419000000
C    -1.247000000     0.099000000     2.829000000
O    -0.955000000     1.046000000     3.557000000
O    -1.847000000    -0.831000000     3.171000000
