14
-84.37085
C     0.752000000     1.282000000    -0.050000000
H     1.249000000     2.237000000    -0.202000000
C     0.581000000     0.393000000    -1.118000000
H     0.772000000     0.812000000    -2.103000000
C    -0.204000000    -0.778000000    -0.947000000
H    -0.441000000    -1.276000000    -1.856000000
C    -0.692000000    -1.125000000     0.332000000
H    -1.145000000    -2.108000000     0.425000000
C    -0.331000000    -0.300000000     1.429000000
H    -0.550000000    -0.707000000     2.412000000
C     0.279000000     0.975000000     1.220000000
C     0.600000000     1.924000000     2.413000000
O     1.279000000     2.897000000     2.259000000
O    -0.055000000     1.799000000     3.451000000
