14
-93.49861
C     1.265000000     0.746000000     0.230000000
H     2.182000000     1.324000000     0.315000000
C     1.165000000    -0.489000000    -0.358000000
H     2.050000000    -0.967000000    -0.769000000
C    -0.060000000    -1.150000000    -0.464000000
H    -0.108000000    -2.157000000    -0.808000000
C    -1.180000000    -0.491000000    -0.006000000
H    -2.117000000    -1.042000000    -0.017000000
C    -1.149000000     0.813000000     0.426000000
H    -2.099000000     1.292000000     0.648000000
C     0.100000000     1.452000000     0.558000000
C     0.140000000     2.938000000     1.052000000
O     1.265000000     3.474000000     1.092000000
O    -0.906000000     3.493000000     1.233000000
