14
-88.32560
C     0.969000000     1.092000000     0.230000000
H     1.735000000     1.805000000     0.526000000
C    -0.274000000     1.017000000     0.848000000
H    -0.543000000     1.736000000     1.617000000
C    -1.156000000    -0.008000000     0.472000000
H    -2.117000000    -0.110000000     0.927000000
C    -0.759000000    -0.941000000    -0.445000000
H    -1.474000000    -1.752000000    -0.554000000
C     0.475000000    -0.852000000    -1.075000000
H     0.763000000    -1.621000000    -1.788000000
C     1.423000000     0.115000000    -0.693000000
C     2.894000000     0.044000000    -1.191000000
O     3.070000000    -0.526000000    -2.280000000
O     3.794000000     0.518000000    -0.596000000
