14
-86.81138
C    -1.165000000    -0.901000000     0.090000000
H    -1.812000000    -1.775000000     0.070000000
C    -0.174000000    -0.919000000    -0.889000000
H    -0.259000000    -1.741000000    -1.596000000
C     0.850000000     0.060000000    -0.944000000
H     1.531000000     0.140000000    -1.779000000
C     0.822000000     1.103000000     0.027000000
H     1.529000000     1.924000000    -0.065000000
C    -0.182000000     1.072000000     0.990000000
H    -0.153000000     1.855000000     1.743000000
C    -1.180000000     0.087000000     1.119000000
C    -2.112000000    -0.012000000     2.282000000
O    -1.803000000     0.641000000     3.245000000
O    -3.130000000    -0.660000000     2.251000000
