14
-83.75484
C     0.157000000     1.306000000     0.610000000
H     0.409000000     2.268000000     1.048000000
C     0.622000000     0.923000000    -0.588000000
H     1.214000000     1.635000000    -1.157000000
C     0.449000000    -0.345000000    -1.105000000
H     0.899000000    -0.501000000    -2.120000000
C    -0.244000000    -1.288000000    -0.339000000
H    -0.251000000    -2.340000000    -0.615000000
C    -0.860000000    -0.869000000     0.857000000
H    -1.242000000    -1.674000000     1.480000000
C    -0.650000000     0.410000000     1.314000000
C    -1.306000000     0.780000000     2.634000000
O    -1.263000000     1.932000000     3.016000000
O    -1.839000000    -0.020000000     3.384000000
