14
-86.79526
C    -0.024000000     1.242000000     0.685000000
H     0.112000000     2.219000000     1.141000000
C     1.101000000     0.676000000     0.107000000
H     2.052000000     1.201000000     0.150000000
C     0.983000000    -0.507000000    -0.471000000
H     1.810000000    -0.915000000    -0.981000000
C    -0.246000000    -1.184000000    -0.537000000
H    -0.209000000    -2.201000000    -0.919000000
C    -1.356000000    -0.649000000     0.033000000
H    -2.345000000    -1.096000000    -0.032000000
C    -1.297000000     0.608000000     0.598000000
C    -2.532000000     1.285000000     1.188000000
O    -2.492000000     2.486000000     1.443000000
O    -3.551000000     0.655000000     1.330000000
