14
-77.87753
C    -0.897000000     1.044000000    -0.492000000
H    -1.502000000     1.804000000    -0.980000000
C     0.470000000     1.007000000    -0.651000000
H     0.989000000     1.867000000    -1.067000000
C     1.202000000    -0.042000000    -0.153000000
H     2.292000000    -0.040000000    -0.284000000
C     0.528000000    -1.153000000     0.299000000
H     1.113000000    -2.045000000     0.505000000
C    -0.850000000    -1.148000000     0.533000000
H    -1.301000000    -2.009000000     1.019000000
C    -1.581000000    -0.011000000     0.146000000
C    -3.021000000     0.083000000     0.325000000
O    -3.649000000     0.919000000    -0.313000000
O    -3.563000000    -0.509000000     1.155000000
