14
-85.63863
C    -0.936000000     1.124000000     0.269000000
H    -1.612000000     1.975000000     0.287000000
C     0.267000000     1.139000000    -0.475000000
H     0.573000000     2.044000000    -0.993000000
C     1.109000000     0.056000000    -0.625000000
H     1.973000000     0.290000000    -1.212000000
C     0.722000000    -1.122000000     0.045000000
H     1.361000000    -1.998000000    -0.031000000
C    -0.490000000    -1.138000000     0.754000000
H    -0.763000000    -2.109000000     1.160000000
C    -1.351000000    -0.064000000     0.899000000
C    -2.683000000    -0.145000000     1.600000000
O    -3.520000000     0.733000000     1.535000000
O    -3.027000000    -1.156000000     2.204000000
