14
-82.93478
C    -0.685000000     1.205000000    -0.526000000
H    -1.101000000     2.122000000    -0.935000000
C     0.690000000     1.085000000    -0.328000000
H     1.395000000     1.882000000    -0.547000000
C     1.212000000    -0.162000000     0.102000000
H     2.198000000    -0.311000000     0.143000000
C     0.336000000    -1.174000000     0.461000000
H     0.792000000    -2.087000000     0.836000000
C    -0.995000000    -1.006000000     0.286000000
H    -1.782000000    -1.745000000     0.418000000
C    -1.552000000     0.212000000    -0.160000000
C    -3.032000000     0.390000000    -0.236000000
O    -3.468000000     1.463000000    -0.558000000
O    -3.760000000    -0.423000000     0.279000000
