14
-86.64239
C    -0.953000000     0.844000000    -0.773000000
H    -1.570000000     1.512000000    -1.368000000
C     0.423000000     1.114000000    -0.646000000
H     0.758000000     1.939000000    -1.269000000
C     1.214000000     0.303000000     0.083000000
H     2.296000000     0.525000000     0.092000000
C     0.664000000    -0.824000000     0.744000000
H     1.161000000    -1.602000000     1.317000000
C    -0.673000000    -1.118000000     0.602000000
H    -1.029000000    -1.991000000     1.143000000
C    -1.512000000    -0.308000000    -0.122000000
C    -2.949000000    -0.594000000    -0.177000000
O    -3.681000000     0.351000000    -0.464000000
O    -3.447000000    -1.686000000     0.136000000
