14
-79.44577
C    -0.894000000     1.019000000    -0.629000000
H    -1.369000000     1.897000000    -1.059000000
C     0.475000000     1.095000000    -0.440000000
H     0.990000000     1.999000000    -0.756000000
C     1.193000000     0.048000000     0.020000000
H     2.310000000     0.039000000     0.074000000
C     0.577000000    -1.039000000     0.413000000
H     1.155000000    -1.822000000     0.897000000
C    -0.790000000    -1.195000000     0.426000000
H    -1.178000000    -2.172000000     0.702000000
C    -1.562000000    -0.105000000    -0.082000000
C    -3.040000000    -0.248000000    -0.240000000
O    -3.768000000     0.578000000    -0.838000000
O    -3.601000000    -1.117000000     0.456000000
