14
-84.15387
C    -1.406000000     0.358000000     0.084000000
H    -2.384000000     0.795000000     0.269000000
C    -0.296000000     1.225000000     0.359000000
H    -0.387000000     2.267000000     0.654000000
C     0.967000000     0.765000000     0.216000000
H     1.796000000     1.482000000     0.243000000
C     1.200000000    -0.592000000    -0.039000000
H     2.167000000    -1.070000000    -0.170000000
C     0.029000000    -1.419000000    -0.336000000
H     0.182000000    -2.400000000    -0.778000000
C    -1.270000000    -0.945000000    -0.319000000
C    -2.437000000    -1.822000000    -0.695000000
O    -3.553000000    -1.433000000    -0.469000000
O    -2.226000000    -2.917000000    -1.160000000
