14
-80.00935
C    -1.404000000     0.332000000     0.366000000
H    -2.299000000     0.909000000     0.586000000
C    -0.312000000     0.470000000     1.180000000
H    -0.657000000     0.945000000     2.095000000
C     0.926000000     0.040000000     0.799000000
H     1.664000000    -0.002000000     1.510000000
C     1.147000000    -0.503000000    -0.410000000
H     2.152000000    -0.856000000    -0.629000000
C     0.057000000    -0.564000000    -1.319000000
H     0.216000000    -0.916000000    -2.335000000
C    -1.223000000    -0.114000000    -0.925000000
C    -2.319000000    -0.136000000    -1.967000000
O    -3.428000000     0.201000000    -1.660000000
O    -2.046000000    -0.644000000    -3.036000000
