14
-89.39723
C     0.372000000    -1.211000000     0.894000000
H     0.517000000    -2.176000000     1.372000000
C     0.615000000    -1.048000000    -0.495000000
H     1.040000000    -1.961000000    -0.903000000
C     0.286000000     0.101000000    -1.187000000
H     0.564000000     0.078000000    -2.263000000
C    -0.259000000     1.181000000    -0.522000000
H    -0.438000000     2.117000000    -1.046000000
C    -0.543000000     1.088000000     0.855000000
H    -0.993000000     1.881000000     1.448000000
C    -0.235000000    -0.129000000     1.502000000
C    -0.734000000    -0.321000000     2.933000000
O    -0.851000000     0.604000000     3.693000000
O    -0.947000000    -1.475000000     3.272000000
