14
-86.12310
C    -0.878000000     1.157000000     0.265000000
H    -1.426000000     2.078000000     0.445000000
C     0.362000000     0.892000000     0.823000000
H     0.858000000     1.596000000     1.487000000
C     1.108000000    -0.250000000     0.493000000
H     2.163000000    -0.466000000     0.797000000
C     0.552000000    -1.056000000    -0.446000000
H     1.176000000    -1.909000000    -0.700000000
C    -0.684000000    -0.818000000    -1.030000000
H    -1.047000000    -1.589000000    -1.705000000
C    -1.468000000     0.257000000    -0.596000000
C    -2.753000000     0.528000000    -1.329000000
O    -3.661000000     1.150000000    -0.832000000
O    -2.915000000    -0.060000000    -2.406000000
