14
-81.31275
C    -0.606000000     0.377000000    -1.303000000
H    -1.050000000     0.710000000    -2.238000000
C    -0.569000000    -0.911000000    -0.775000000
H    -0.949000000    -1.765000000    -1.330000000
C     0.027000000    -1.149000000     0.450000000
H     0.185000000    -2.160000000     0.849000000
C     0.576000000    -0.107000000     1.121000000
H     1.188000000    -0.323000000     1.993000000
C     0.471000000     1.206000000     0.673000000
H     0.976000000     1.877000000     1.363000000
C    -0.060000000     1.456000000    -0.573000000
C    -0.116000000     2.908000000    -1.087000000
O    -0.562000000     3.140000000    -2.194000000
O     0.622000000     3.773000000    -0.622000000
