14
-90.09316
C    -1.178000000     0.778000000    -0.117000000
H    -2.105000000     1.345000000    -0.092000000
C    -0.379000000     0.715000000     1.028000000
H    -0.587000000     1.215000000     1.970000000
C     0.749000000    -0.071000000     0.983000000
H     1.275000000    -0.246000000     1.864000000
C     1.031000000    -0.799000000    -0.196000000
H     1.856000000    -1.505000000    -0.252000000
C     0.256000000    -0.678000000    -1.358000000
H     0.502000000    -1.222000000    -2.266000000
C    -0.786000000     0.176000000    -1.305000000
C    -1.596000000     0.336000000    -2.555000000
O    -2.632000000     0.992000000    -2.429000000
O    -1.237000000    -0.201000000    -3.573000000
