14
-84.16546
C     0.097000000    -1.240000000     0.797000000
H     0.398000000    -2.179000000     1.254000000
C     0.319000000    -1.146000000    -0.570000000
H     0.658000000    -2.013000000    -1.130000000
C     0.224000000     0.093000000    -1.184000000
H     0.314000000     0.069000000    -2.278000000
C    -0.151000000     1.244000000    -0.466000000
H    -0.350000000     2.137000000    -1.053000000
C    -0.452000000     1.126000000     0.881000000
H    -0.810000000     1.979000000     1.451000000
C    -0.340000000    -0.105000000     1.519000000
C    -0.498000000    -0.189000000     2.958000000
O    -0.971000000     0.711000000     3.647000000
O    -0.397000000    -1.283000000     3.500000000
