14
-84.83109
C     0.100000000     0.882000000    -1.183000000
H     0.075000000     1.351000000    -2.163000000
C    -0.946000000     0.004000000    -0.882000000
H    -1.821000000    -0.121000000    -1.514000000
C    -0.873000000    -0.737000000     0.280000000
H    -1.577000000    -1.492000000     0.498000000
C     0.158000000    -0.669000000     1.128000000
H     0.109000000    -1.276000000     2.029000000
C     1.194000000     0.184000000     0.853000000
H     1.933000000     0.358000000     1.631000000
C     1.177000000     0.957000000    -0.321000000
C     2.343000000     1.870000000    -0.586000000
O     2.286000000     2.599000000    -1.537000000
O     3.353000000     1.900000000     0.126000000
