14
-81.18830
C     0.700000000     1.091000000    -0.763000000
H     1.103000000     1.897000000    -1.372000000
C    -0.318000000     0.217000000    -1.255000000
H    -0.775000000     0.338000000    -2.234000000
C    -0.892000000    -0.745000000    -0.410000000
H    -1.427000000    -1.570000000    -0.780000000
C    -0.411000000    -0.898000000     0.875000000
H    -0.809000000    -1.722000000     1.462000000
C     0.497000000     0.027000000     1.464000000
H     0.905000000    -0.147000000     2.457000000
C     1.092000000     1.009000000     0.597000000
C     2.198000000     1.846000000     1.072000000
O     2.928000000     2.510000000     0.332000000
O     2.458000000     1.887000000     2.245000000
