14
-89.46950
C     0.208000000     1.380000000    -0.543000000
H     0.381000000     2.350000000    -1.003000000
C    -0.827000000     0.558000000    -0.967000000
H    -1.564000000     0.899000000    -1.688000000
C    -0.922000000    -0.735000000    -0.406000000
H    -1.611000000    -1.497000000    -0.738000000
C    -0.056000000    -1.181000000     0.628000000
H    -0.107000000    -2.191000000     1.027000000
C     0.950000000    -0.316000000     1.115000000
H     1.566000000    -0.562000000     1.976000000
C     1.100000000     0.946000000     0.481000000
C     2.245000000     1.855000000     1.082000000
O     2.459000000     2.973000000     0.693000000
O     3.060000000     1.297000000     1.821000000
