14
-82.01682
C     1.040000000     0.464000000    -0.895000000
H     1.882000000     0.651000000    -1.556000000
C     0.752000000    -0.841000000    -0.556000000
H     1.294000000    -1.649000000    -1.042000000
C    -0.193000000    -1.146000000     0.400000000
H    -0.351000000    -2.150000000     0.732000000
C    -1.009000000    -0.121000000     0.956000000
H    -1.787000000    -0.409000000     1.658000000
C    -0.830000000     1.193000000     0.479000000
H    -1.398000000     2.039000000     0.857000000
C     0.181000000     1.479000000    -0.442000000
C     0.468000000     2.847000000    -0.917000000
O     1.021000000     3.148000000    -1.942000000
O     0.152000000     3.825000000    -0.251000000
