14
-91.71109
C     0.354000000     1.205000000    -0.904000000
H     0.520000000     2.030000000    -1.592000000
C    -0.074000000    -0.076000000    -1.358000000
H    -0.267000000    -0.318000000    -2.400000000
C    -0.282000000    -1.103000000    -0.430000000
H    -0.679000000    -2.102000000    -0.781000000
C    -0.119000000    -0.914000000     0.961000000
H    -0.332000000    -1.658000000     1.725000000
C     0.307000000     0.328000000     1.364000000
H     0.228000000     0.519000000     2.432000000
C     0.528000000     1.371000000     0.466000000
C     0.925000000     2.700000000     1.095000000
O     1.288000000     3.598000000     0.345000000
O     0.765000000     2.892000000     2.295000000
