14
-89.11962
C     0.680000000     0.860000000    -1.030000000
H     1.148000000     1.366000000    -1.870000000
C     0.700000000    -0.547000000    -0.967000000
H     1.128000000    -1.168000000    -1.750000000
C     0.033000000    -1.260000000     0.014000000
H     0.193000000    -2.359000000     0.022000000
C    -0.669000000    -0.588000000     1.009000000
H    -1.222000000    -1.173000000     1.739000000
C    -0.641000000     0.836000000     1.028000000
H    -1.036000000     1.442000000     1.839000000
C    -0.086000000     1.563000000     0.001000000
C    -0.104000000     3.127000000    -0.002000000
O     0.411000000     3.815000000    -0.904000000
O    -0.559000000     3.707000000     0.997000000
