14
-88.56748
C     0.704000000     0.848000000    -0.880000000
H     1.283000000     1.504000000    -1.525000000
C     1.086000000    -0.443000000    -0.559000000
H     2.039000000    -0.879000000    -0.846000000
C     0.234000000    -1.166000000     0.261000000
H     0.533000000    -2.146000000     0.561000000
C    -0.898000000    -0.605000000     0.890000000
H    -1.583000000    -1.131000000     1.551000000
C    -1.183000000     0.723000000     0.598000000
H    -2.102000000     1.137000000     1.006000000
C    -0.416000000     1.449000000    -0.327000000
C    -0.754000000     2.882000000    -0.705000000
O     0.062000000     3.613000000    -1.235000000
O    -1.818000000     3.358000000    -0.383000000
