14
-81.81501
C     1.169000000     0.603000000    -0.643000000
H     1.989000000     0.983000000    -1.246000000
C     1.058000000    -0.716000000    -0.346000000
H     1.840000000    -1.390000000    -0.686000000
C    -0.085000000    -1.178000000     0.347000000
H    -0.068000000    -2.257000000     0.655000000
C    -1.162000000    -0.370000000     0.622000000
H    -2.143000000    -0.689000000     0.967000000
C    -1.007000000     1.042000000     0.351000000
H    -1.872000000     1.698000000     0.395000000
C     0.188000000     1.505000000    -0.266000000
C     0.361000000     3.019000000    -0.526000000
O     1.189000000     3.416000000    -1.305000000
O    -0.376000000     3.846000000    -0.069000000
