14
-77.11408
C     0.526000000     1.035000000    -0.905000000
H     1.126000000     1.720000000    -1.499000000
C     0.786000000    -0.337000000    -1.006000000
H     1.597000000    -0.726000000    -1.618000000
C     0.211000000    -1.187000000    -0.101000000
H     0.430000000    -2.245000000    -0.024000000
C    -0.761000000    -0.710000000     0.750000000
H    -1.320000000    -1.474000000     1.285000000
C    -0.988000000     0.663000000     0.871000000
H    -1.704000000     1.086000000     1.571000000
C    -0.271000000     1.554000000     0.100000000
C    -0.421000000     2.991000000     0.311000000
O    -0.336000000     3.832000000    -0.543000000
O    -0.279000000     3.364000000     1.452000000
