14
-78.82208
C     0.601000000     0.697000000    -1.129000000
H     1.270000000     1.160000000    -1.850000000
C     0.800000000    -0.661000000    -0.931000000
H     1.566000000    -1.196000000    -1.487000000
C     0.052000000    -1.287000000     0.059000000
H     0.252000000    -2.364000000     0.290000000
C    -0.804000000    -0.479000000     0.883000000
H    -1.314000000    -0.898000000     1.747000000
C    -1.012000000     0.880000000     0.614000000
H    -1.654000000     1.397000000     1.322000000
C    -0.243000000     1.571000000    -0.381000000
C    -0.341000000     3.036000000    -0.486000000
O     0.234000000     3.618000000    -1.387000000
O    -1.178000000     3.625000000     0.116000000
