14
-90.13697
C    -0.272000000     0.480000000    -1.289000000
H    -0.455000000     0.786000000    -2.316000000
C    -0.069000000    -0.870000000    -0.943000000
H    -0.108000000    -1.621000000    -1.728000000
C     0.212000000    -1.188000000     0.337000000
H     0.396000000    -2.172000000     0.616000000
C     0.209000000    -0.161000000     1.309000000
H     0.472000000    -0.486000000     2.312000000
C    -0.267000000     1.139000000     1.057000000
H    -0.421000000     1.887000000     1.831000000
C    -0.377000000     1.494000000    -0.312000000
C    -0.509000000     2.907000000    -0.803000000
O    -1.084000000     3.026000000    -1.866000000
O    -0.046000000     3.842000000    -0.146000000
