14
-91.21789
C    -0.031000000     0.101000000    -1.481000000
H    -0.054000000     0.067000000    -2.567000000
C    -0.155000000    -1.077000000    -0.815000000
H    -0.428000000    -2.011000000    -1.299000000
C    -0.057000000    -1.031000000     0.620000000
H    -0.273000000    -1.921000000     1.171000000
C     0.199000000     0.153000000     1.277000000
H     0.173000000     0.065000000     2.360000000
C     0.455000000     1.347000000     0.599000000
H     0.685000000     2.227000000     1.195000000
C     0.327000000     1.339000000    -0.799000000
C     0.492000000     2.600000000    -1.586000000
O     0.220000000     2.587000000    -2.793000000
O     0.773000000     3.593000000    -0.951000000
