14
-85.98092
C     0.785000000    -0.748000000     0.980000000
H     1.431000000    -1.311000000     1.650000000
C     0.875000000    -0.954000000    -0.413000000
H     1.580000000    -1.661000000    -0.843000000
C     0.164000000    -0.121000000    -1.238000000
H     0.144000000    -0.272000000    -2.311000000
C    -0.754000000     0.779000000    -0.683000000
H    -1.406000000     1.269000000    -1.401000000
C    -0.955000000     0.846000000     0.669000000
H    -1.707000000     1.527000000     1.059000000
C    -0.146000000     0.137000000     1.563000000
C    -0.453000000     0.296000000     3.045000000
O    -1.373000000     0.980000000     3.444000000
O     0.367000000    -0.075000000     3.851000000
