14
-93.68379
C    -1.320000000    -0.179000000    -0.780000000
H    -2.238000000    -0.453000000    -1.292000000
C    -0.513000000    -1.187000000    -0.270000000
H    -0.772000000    -2.241000000    -0.337000000
C     0.677000000    -0.908000000     0.417000000
H     1.188000000    -1.724000000     0.901000000
C     1.080000000     0.424000000     0.556000000
H     2.039000000     0.632000000     1.025000000
C     0.318000000     1.419000000    -0.044000000
H     0.700000000     2.430000000     0.076000000
C    -0.923000000     1.171000000    -0.598000000
C    -1.746000000     2.340000000    -1.132000000
O    -2.718000000     2.096000000    -1.849000000
O    -1.356000000     3.458000000    -0.902000000
