14
-77.24274
C    -1.384000000    -0.336000000    -0.500000000
H    -2.394000000    -0.625000000    -0.779000000
C    -0.668000000    -0.958000000     0.485000000
H    -1.006000000    -1.864000000     0.980000000
C     0.533000000    -0.483000000     0.989000000
H     1.095000000    -0.949000000     1.793000000
C     1.149000000     0.510000000     0.287000000
H     2.171000000     0.755000000     0.564000000
C     0.521000000     1.157000000    -0.723000000
H     1.036000000     1.998000000    -1.181000000
C    -0.755000000     0.790000000    -1.115000000
C    -1.555000000     1.387000000    -2.208000000
O    -2.276000000     0.618000000    -2.775000000
O    -1.277000000     2.442000000    -2.664000000
