14
-87.61680
C    -1.303000000     0.223000000    -0.576000000
H    -2.303000000     0.399000000    -0.963000000
C    -0.796000000    -1.017000000    -0.386000000
H    -1.447000000    -1.887000000    -0.424000000
C     0.456000000    -1.079000000     0.241000000
H     0.778000000    -2.035000000     0.511000000
C     1.234000000     0.044000000     0.445000000
H     2.233000000    -0.127000000     0.837000000
C     0.762000000     1.325000000     0.148000000
H     1.430000000     2.163000000     0.332000000
C    -0.528000000     1.378000000    -0.333000000
C    -1.290000000     2.716000000    -0.577000000
O    -2.045000000     2.830000000    -1.520000000
O    -1.083000000     3.672000000     0.157000000
