14
-89.98095
C    -1.384000000     0.189000000    -0.447000000
H    -2.425000000     0.236000000    -0.756000000
C    -0.785000000    -1.032000000    -0.233000000
H    -1.327000000    -1.967000000    -0.343000000
C     0.505000000    -1.119000000     0.232000000
H     0.916000000    -2.114000000     0.467000000
C     1.231000000     0.042000000     0.388000000
H     2.288000000    -0.122000000     0.582000000
C     0.697000000     1.319000000     0.098000000
H     1.348000000     2.187000000     0.170000000
C    -0.646000000     1.387000000    -0.289000000
C    -1.264000000     2.804000000    -0.387000000
O    -2.462000000     2.953000000    -0.734000000
O    -0.595000000     3.837000000    -0.260000000
