14
-88.07947
C    -1.358000000    -0.175000000    -0.542000000
H    -2.414000000    -0.205000000    -0.798000000
C    -0.525000000    -1.227000000    -0.181000000
H    -0.770000000    -2.286000000    -0.174000000
C     0.810000000    -0.958000000     0.214000000
H     1.368000000    -1.863000000     0.534000000
C     1.260000000     0.382000000     0.334000000
H     2.285000000     0.634000000     0.594000000
C     0.360000000     1.407000000     0.032000000
H     0.727000000     2.430000000     0.041000000
C    -0.976000000     1.175000000    -0.389000000
C    -1.910000000     2.303000000    -0.744000000
O    -3.105000000     2.134000000    -1.079000000
O    -1.535000000     3.463000000    -0.602000000
