14
-84.46839
C    -1.247000000    -0.508000000    -0.675000000
H    -2.083000000    -1.057000000    -1.103000000
C     0.047000000    -1.096000000    -0.622000000
H     0.031000000    -2.115000000    -1.001000000
C     1.125000000    -0.544000000     0.061000000
H     2.004000000    -1.108000000     0.177000000
C     0.895000000     0.705000000     0.675000000
H     1.677000000     1.167000000     1.271000000
C    -0.263000000     1.384000000     0.415000000
H    -0.161000000     2.384000000     0.829000000
C    -1.354000000     0.808000000    -0.171000000
C    -2.641000000     1.546000000    -0.295000000
O    -3.539000000     0.800000000    -0.678000000
O    -2.807000000     2.743000000    -0.128000000
