14
-87.04837
C    -1.165000000    -0.633000000    -0.592000000
H    -1.969000000    -1.128000000    -1.130000000
C    -0.025000000    -1.330000000    -0.244000000
H     0.124000000    -2.394000000    -0.410000000
C     1.036000000    -0.605000000     0.343000000
H     1.976000000    -1.121000000     0.556000000
C     0.875000000     0.739000000     0.740000000
H     1.594000000     1.389000000     1.232000000
C    -0.340000000     1.402000000     0.416000000
H    -0.394000000     2.466000000     0.633000000
C    -1.347000000     0.723000000    -0.353000000
C    -2.598000000     1.479000000    -0.713000000
O    -3.526000000     0.773000000    -1.068000000
O    -2.762000000     2.642000000    -0.478000000
