14
-87.00839
C    -0.723000000    -1.277000000    -0.245000000
H    -1.166000000    -2.267000000    -0.313000000
C     0.564000000    -1.132000000     0.206000000
H     1.132000000    -2.005000000     0.518000000
C     1.176000000     0.105000000     0.435000000
H     2.185000000     0.201000000     0.696000000
C     0.384000000     1.237000000     0.149000000
H     0.854000000     2.199000000     0.338000000
C    -0.925000000     1.125000000    -0.380000000
H    -1.351000000     2.047000000    -0.766000000
C    -1.516000000    -0.144000000    -0.579000000
C    -2.925000000    -0.230000000    -1.002000000
O    -3.458000000    -1.305000000    -0.758000000
O    -3.519000000     0.758000000    -1.315000000
