14
-92.68408
C     0.008000000    -1.239000000     0.813000000
H     0.051000000    -2.084000000     1.495000000
C     0.859000000    -0.093000000     0.958000000
H     1.540000000    -0.077000000     1.806000000
C     0.731000000     1.003000000     0.120000000
H     1.313000000     1.839000000     0.320000000
C    -0.205000000     0.987000000    -0.934000000
H    -0.409000000     1.884000000    -1.512000000
C    -0.963000000    -0.188000000    -1.139000000
H    -1.764000000    -0.165000000    -1.874000000
C    -0.901000000    -1.245000000    -0.279000000
C    -1.692000000    -2.581000000    -0.471000000
O    -1.585000000    -3.413000000     0.435000000
O    -2.498000000    -2.727000000    -1.404000000
