14
-85.28784
C    -0.377000000    -1.235000000     0.692000000
H    -0.463000000    -2.164000000     1.249000000
C     0.908000000    -0.658000000     0.737000000
H     1.759000000    -1.042000000     1.295000000
C     1.085000000     0.573000000     0.127000000
H     2.118000000     1.016000000     0.119000000
C     0.049000000     1.080000000    -0.623000000
H     0.241000000     1.982000000    -1.199000000
C    -1.164000000     0.494000000    -0.658000000
H    -1.925000000     0.935000000    -1.296000000
C    -1.396000000    -0.709000000     0.027000000
C    -2.639000000    -1.482000000    -0.235000000
O    -2.764000000    -2.619000000     0.175000000
O    -3.579000000    -0.883000000    -0.766000000
