14
-84.36805
C     0.611000000    -1.380000000    -0.071000000
H     1.031000000    -2.382000000    -0.028000000
C     1.318000000    -0.165000000     0.179000000
H     2.399000000    -0.167000000     0.290000000
C     0.643000000     1.068000000     0.179000000
H     1.108000000     1.990000000     0.457000000
C    -0.752000000     1.022000000     0.029000000
H    -1.189000000     2.016000000     0.076000000
C    -1.468000000    -0.151000000    -0.122000000
H    -2.549000000    -0.163000000    -0.229000000
C    -0.805000000    -1.380000000    -0.294000000
C    -1.565000000    -2.684000000    -0.577000000
O    -1.022000000    -3.763000000    -0.712000000
O    -2.787000000    -2.727000000    -0.601000000
