14
-91.92630
C    -1.266000000     0.156000000    -0.709000000
H    -2.147000000     0.115000000    -1.345000000
C    -0.130000000    -0.322000000    -1.317000000
H    -0.037000000    -0.696000000    -2.334000000
C     1.042000000    -0.334000000    -0.550000000
H     1.945000000    -0.729000000    -1.072000000
C     1.071000000     0.173000000     0.773000000
H     1.972000000     0.163000000     1.381000000
C    -0.172000000     0.554000000     1.343000000
H    -0.157000000     0.901000000     2.374000000
C    -1.385000000     0.578000000     0.628000000
C    -2.664000000     0.914000000     1.333000000
O    -3.636000000     1.019000000     0.616000000
O    -2.623000000     0.961000000     2.581000000
