14
-82.91451
C    -0.887000000    -0.861000000    -0.718000000
H    -1.480000000    -1.377000000    -1.469000000
C     0.443000000    -0.764000000    -0.945000000
H     0.922000000    -1.383000000    -1.699000000
C     1.236000000     0.073000000    -0.207000000
H     2.296000000     0.069000000    -0.229000000
C     0.591000000     0.763000000     0.816000000
H     1.160000000     1.342000000     1.538000000
C    -0.712000000     0.701000000     1.072000000
H    -1.109000000     1.239000000     1.929000000
C    -1.551000000    -0.076000000     0.226000000
C    -3.067000000    -0.205000000     0.407000000
O    -3.682000000    -1.216000000     0.054000000
O    -3.487000000     0.606000000     1.217000000
