14
-77.99723
C    -1.213000000     0.141000000    -0.678000000
H    -2.169000000    -0.051000000    -1.158000000
C    -0.190000000    -0.633000000    -1.104000000
H    -0.277000000    -1.319000000    -1.943000000
C     0.985000000    -0.654000000    -0.392000000
H     1.809000000    -1.286000000    -0.706000000
C     1.020000000     0.105000000     0.775000000
H     1.925000000     0.282000000     1.352000000
C     0.041000000     0.976000000     1.083000000
H     0.215000000     1.674000000     1.898000000
C    -1.170000000     0.933000000     0.435000000
C    -2.419000000     1.672000000     0.830000000
O    -3.384000000     1.702000000     0.067000000
O    -2.580000000     2.270000000     1.878000000
