14
-92.24971
C    -1.171000000    -0.267000000    -0.874000000
H    -2.000000000    -0.575000000    -1.507000000
C     0.110000000    -0.787000000    -1.073000000
H     0.354000000    -1.416000000    -1.926000000
C     1.078000000    -0.424000000    -0.215000000
H     2.099000000    -0.747000000    -0.259000000
C     0.816000000     0.356000000     0.921000000
H     1.641000000     0.680000000     1.550000000
C    -0.478000000     0.815000000     1.153000000
H    -0.625000000     1.452000000     2.022000000
C    -1.482000000     0.412000000     0.317000000
C    -2.903000000     0.936000000     0.587000000
O    -3.652000000     1.025000000    -0.398000000
O    -3.175000000     1.365000000     1.720000000
