14
-85.02327
C     0.162000000     1.132000000    -0.887000000
H     0.314000000     1.913000000    -1.628000000
C    -0.156000000    -0.095000000    -1.333000000
H    -0.187000000    -0.283000000    -2.403000000
C    -0.273000000    -1.129000000    -0.378000000
H    -0.571000000    -2.197000000    -0.686000000
C    -0.206000000    -0.780000000     1.021000000
H    -0.428000000    -1.534000000     1.772000000
C     0.300000000     0.425000000     1.436000000
H     0.578000000     0.642000000     2.464000000
C     0.436000000     1.425000000     0.441000000
C     0.785000000     2.818000000     0.900000000
O     1.041000000     3.685000000     0.109000000
O     0.835000000     3.073000000     2.115000000
