14
-93.14378
C    -0.082000000     1.327000000    -0.659000000
H    -0.049000000     2.229000000    -1.265000000
C    -0.095000000     0.066000000    -1.299000000
H    -0.132000000     0.109000000    -2.385000000
C    -0.115000000    -1.107000000    -0.586000000
H    -0.082000000    -2.097000000    -1.044000000
C     0.026000000    -1.030000000     0.797000000
H     0.209000000    -1.909000000     1.410000000
C    -0.036000000     0.182000000     1.443000000
H     0.071000000     0.160000000     2.525000000
C    -0.116000000     1.402000000     0.755000000
C    -0.074000000     2.757000000     1.466000000
O    -0.005000000     3.775000000     0.811000000
O    -0.289000000     2.767000000     2.705000000
