14
-84.13317
C    -0.087000000     1.184000000    -0.945000000
H    -0.083000000     1.951000000    -1.716000000
C    -0.012000000    -0.237000000    -1.296000000
H    -0.096000000    -0.574000000    -2.326000000
C     0.193000000    -1.184000000    -0.278000000
H     0.327000000    -2.299000000    -0.458000000
C     0.218000000    -0.821000000     1.038000000
H     0.287000000    -1.627000000     1.764000000
C    -0.015000000     0.515000000     1.404000000
H     0.154000000     0.846000000     2.426000000
C    -0.205000000     1.523000000     0.419000000
C    -0.545000000     2.940000000     0.870000000
O    -1.161000000     3.672000000     0.088000000
O    -0.391000000     3.349000000     1.999000000
