14
-88.78500
C    -0.341000000     0.645000000    -1.239000000
H    -0.645000000     1.039000000    -2.206000000
C    -0.320000000    -0.697000000    -1.035000000
H    -0.459000000    -1.331000000    -1.907000000
C     0.052000000    -1.223000000     0.229000000
H     0.037000000    -2.315000000     0.289000000
C     0.368000000    -0.314000000     1.246000000
H     0.692000000    -0.718000000     2.202000000
C     0.239000000     1.052000000     0.994000000
H     0.537000000     1.728000000     1.791000000
C    -0.112000000     1.547000000    -0.214000000
C    -0.097000000     3.024000000    -0.554000000
O     0.056000000     3.427000000    -1.705000000
O     0.069000000     3.798000000     0.396000000
