14
-89.59115
C    -0.901000000     0.649000000    -1.031000000
H    -1.483000000     1.102000000    -1.830000000
C    -0.421000000    -0.645000000    -1.122000000
H    -0.744000000    -1.227000000    -1.982000000
C     0.442000000    -1.173000000    -0.100000000
H     0.733000000    -2.243000000    -0.167000000
C     0.692000000    -0.329000000     0.989000000
H     1.294000000    -0.757000000     1.786000000
C     0.194000000     0.908000000     1.111000000
H     0.300000000     1.502000000     2.016000000
C    -0.603000000     1.419000000     0.088000000
C    -1.191000000     2.822000000     0.172000000
O    -1.858000000     3.242000000    -0.724000000
O    -1.043000000     3.324000000     1.280000000
