14
-87.08164
C    -0.098000000     0.816000000    -1.260000000
H    -0.249000000     1.323000000    -2.209000000
C    -0.258000000    -0.571000000    -1.144000000
H    -0.594000000    -1.193000000    -1.970000000
C    -0.093000000    -1.257000000     0.043000000
H    -0.123000000    -2.306000000     0.117000000
C     0.278000000    -0.501000000     1.182000000
H     0.405000000    -1.027000000     2.124000000
C     0.514000000     0.924000000     1.139000000
H     0.829000000     1.555000000     1.966000000
C     0.151000000     1.544000000    -0.081000000
C     0.271000000     3.057000000    -0.180000000
O    -0.541000000     3.674000000    -0.830000000
O     1.085000000     3.680000000     0.504000000
