14
-88.03664
C    -0.397000000     1.071000000    -0.887000000
H    -0.683000000     1.841000000    -1.599000000
C    -0.528000000    -0.301000000    -1.115000000
H    -0.934000000    -0.699000000    -2.042000000
C    -0.100000000    -1.237000000    -0.201000000
H    -0.167000000    -2.316000000    -0.323000000
C     0.435000000    -0.762000000     1.037000000
H     0.849000000    -1.526000000     1.689000000
C     0.581000000     0.621000000     1.231000000
H     0.917000000     1.066000000     2.165000000
C     0.158000000     1.540000000     0.247000000
C     0.284000000     3.051000000     0.454000000
O     0.085000000     3.911000000    -0.419000000
O     0.317000000     3.473000000     1.646000000
