14
-75.89189
C     1.461000000     0.059000000     0.473000000
H     2.434000000     0.293000000     0.899000000
C     0.927000000     0.879000000    -0.500000000
H     1.485000000     1.644000000    -1.032000000
C    -0.354000000     0.646000000    -1.005000000
H    -0.692000000     1.289000000    -1.816000000
C    -1.062000000    -0.348000000    -0.457000000
H    -2.050000000    -0.640000000    -0.805000000
C    -0.645000000    -1.027000000     0.662000000
H    -1.314000000    -1.657000000     1.243000000
C     0.678000000    -0.910000000     1.091000000
C     0.990000000    -1.551000000     2.423000000
O     0.361000000    -2.490000000     2.871000000
O     1.740000000    -1.002000000     3.129000000
