14
-87.21183
C    -0.585000000     0.844000000    -1.097000000
H    -1.135000000     1.253000000    -1.941000000
C    -0.009000000    -0.400000000    -1.256000000
H     0.165000000    -0.804000000    -2.251000000
C     0.518000000    -1.104000000    -0.160000000
H     1.021000000    -2.038000000    -0.354000000
C     0.424000000    -0.571000000     1.122000000
H     0.868000000    -1.110000000     1.955000000
C    -0.180000000     0.673000000     1.284000000
H    -0.276000000     1.042000000     2.301000000
C    -0.663000000     1.411000000     0.168000000
C    -1.123000000     2.828000000     0.395000000
O    -1.947000000     3.304000000    -0.352000000
O    -0.787000000     3.443000000     1.363000000
