14
-78.32948
C    -0.892000000     0.298000000    -1.066000000
H    -1.552000000     0.328000000    -1.929000000
C    -0.488000000    -0.952000000    -0.591000000
H    -0.894000000    -1.829000000    -1.089000000
C     0.313000000    -1.099000000     0.419000000
H     0.532000000    -2.099000000     0.781000000
C     0.824000000     0.019000000     1.096000000
H     1.481000000    -0.096000000     1.955000000
C     0.574000000     1.279000000     0.550000000
H     1.097000000     2.169000000     0.890000000
C    -0.343000000     1.451000000    -0.538000000
C    -0.764000000     2.817000000    -1.058000000
O    -1.725000000     2.868000000    -1.787000000
O    -0.415000000     3.834000000    -0.530000000
