14
-83.06218
C    -0.456000000     0.820000000    -1.136000000
H    -1.016000000     1.297000000    -1.937000000
C    -0.343000000    -0.532000000    -1.150000000
H    -0.687000000    -1.017000000    -2.060000000
C     0.409000000    -1.191000000    -0.145000000
H     0.564000000    -2.316000000    -0.229000000
C     0.828000000    -0.459000000     0.971000000
H     1.269000000    -1.012000000     1.797000000
C     0.418000000     0.872000000     1.091000000
H     0.494000000     1.460000000     2.002000000
C    -0.229000000     1.590000000     0.014000000
C    -0.677000000     2.972000000     0.198000000
O    -1.325000000     3.536000000    -0.674000000
O    -0.475000000     3.541000000     1.249000000
