14
-86.89394
C    -0.566000000     0.442000000    -1.335000000
H    -1.013000000     0.704000000    -2.291000000
C    -0.760000000    -0.823000000    -0.797000000
H    -1.327000000    -1.522000000    -1.405000000
C    -0.236000000    -1.123000000     0.443000000
H    -0.318000000    -2.145000000     0.906000000
C     0.485000000    -0.141000000     1.154000000
H     1.004000000    -0.342000000     2.088000000
C     0.654000000     1.130000000     0.694000000
H     1.194000000     1.856000000     1.296000000
C     0.196000000     1.367000000    -0.616000000
C     0.511000000     2.767000000    -1.210000000
O     0.316000000     3.024000000    -2.347000000
O     1.046000000     3.654000000    -0.478000000
