14
-90.68186
C    -0.207000000     0.449000000    -1.376000000
H    -0.483000000     0.635000000    -2.411000000
C    -0.342000000    -0.876000000    -0.905000000
H    -0.673000000    -1.669000000    -1.571000000
C     0.003000000    -1.220000000     0.446000000
H    -0.108000000    -2.293000000     0.739000000
C     0.412000000    -0.157000000     1.277000000
H     0.517000000    -0.272000000     2.353000000
C     0.628000000     1.149000000     0.766000000
H     1.171000000     1.905000000     1.328000000
C     0.286000000     1.491000000    -0.562000000
C     0.265000000     2.938000000    -1.098000000
O    -0.530000000     3.245000000    -1.991000000
O     1.187000000     3.702000000    -0.771000000
