14
-80.49024
C    -0.963000000     0.779000000    -0.842000000
H    -1.660000000     1.292000000    -1.500000000
C    -1.234000000    -0.457000000    -0.236000000
H    -2.214000000    -0.925000000    -0.290000000
C    -0.243000000    -1.067000000     0.521000000
H    -0.530000000    -2.093000000     0.833000000
C     0.988000000    -0.547000000     0.678000000
H     1.773000000    -0.973000000     1.297000000
C     1.274000000     0.661000000     0.016000000
H     2.259000000     1.119000000     0.038000000
C     0.348000000     1.258000000    -0.806000000
C     0.751000000     2.540000000    -1.431000000
O     0.336000000     2.928000000    -2.470000000
O     1.567000000     3.249000000    -0.870000000
