14
-84.63325
C     1.353000000     0.080000000     0.679000000
H     2.354000000     0.183000000     1.090000000
C     1.034000000     0.701000000    -0.542000000
H     1.697000000     1.308000000    -1.153000000
C    -0.306000000     0.632000000    -1.001000000
H    -0.583000000     1.048000000    -1.941000000
C    -1.186000000    -0.224000000    -0.437000000
H    -2.161000000    -0.415000000    -0.879000000
C    -0.864000000    -0.911000000     0.723000000
H    -1.542000000    -1.683000000     1.077000000
C     0.425000000    -0.768000000     1.377000000
C     0.711000000    -1.416000000     2.684000000
O    -0.032000000    -2.290000000     3.059000000
O     1.782000000    -1.156000000     3.167000000
