14
-85.32400
C    -0.215000000     1.199000000    -0.862000000
H    -0.656000000     2.110000000    -1.260000000
C    -1.062000000     0.073000000    -0.843000000
H    -2.019000000     0.108000000    -1.356000000
C    -0.699000000    -0.991000000    -0.094000000
H    -1.350000000    -1.826000000    -0.159000000
C     0.473000000    -1.004000000     0.725000000
H     0.759000000    -1.869000000     1.318000000
C     1.374000000     0.072000000     0.709000000
H     2.296000000     0.071000000     1.286000000
C     0.986000000     1.239000000    -0.107000000
C     1.897000000     2.480000000    -0.050000000
O     1.561000000     3.455000000    -0.647000000
O     2.853000000     2.426000000     0.691000000
