14
-87.05840
C    -0.106000000     0.337000000    -1.452000000
H    -0.184000000     0.433000000    -2.532000000
C    -0.159000000    -0.975000000    -0.899000000
H    -0.179000000    -1.823000000    -1.579000000
C    -0.006000000    -1.139000000     0.515000000
H     0.024000000    -2.094000000     1.058000000
C     0.202000000    -0.009000000     1.318000000
H     0.353000000    -0.093000000     2.391000000
C     0.192000000     1.308000000     0.796000000
H     0.316000000     2.246000000     1.332000000
C     0.074000000     1.439000000    -0.586000000
C    -0.119000000     2.816000000    -1.164000000
O    -0.041000000     2.958000000    -2.386000000
O    -0.120000000     3.782000000    -0.453000000
