14
-84.46355
C     0.965000000     0.416000000     1.067000000
H     1.627000000     0.868000000     1.801000000
C     0.438000000     1.212000000     0.032000000
H     0.842000000     2.217000000    -0.054000000
C    -0.402000000     0.685000000    -0.943000000
H    -0.641000000     1.342000000    -1.711000000
C    -0.741000000    -0.664000000    -0.858000000
H    -1.549000000    -1.047000000    -1.477000000
C    -0.271000000    -1.432000000     0.195000000
H    -0.569000000    -2.468000000     0.331000000
C     0.540000000    -0.899000000     1.185000000
C     0.951000000    -1.705000000     2.328000000
O     0.471000000    -2.780000000     2.555000000
O     1.919000000    -1.376000000     3.034000000
