14
-89.79179
C    -0.618000000    -0.752000000    -1.055000000
H    -1.121000000    -1.311000000    -1.841000000
C    -0.823000000    -0.967000000     0.317000000
H    -1.360000000    -1.837000000     0.685000000
C    -0.138000000    -0.148000000     1.235000000
H    -0.344000000    -0.246000000     2.323000000
C     0.667000000     0.885000000     0.776000000
H     1.182000000     1.555000000     1.459000000
C     0.943000000     1.003000000    -0.643000000
H     1.813000000     1.592000000    -0.921000000
C     0.236000000     0.225000000    -1.535000000
C     0.565000000     0.342000000    -3.025000000
O    -0.144000000    -0.205000000    -3.884000000
O     1.626000000     0.891000000    -3.433000000
