14
-83.24585
C     0.355000000     0.704000000    -1.298000000
H     0.732000000     1.320000000    -2.111000000
C    -0.338000000     1.305000000    -0.257000000
H    -0.724000000     2.317000000    -0.348000000
C    -0.687000000     0.584000000     0.869000000
H    -1.352000000     1.073000000     1.665000000
C    -0.170000000    -0.718000000     1.045000000
H    -0.213000000    -1.226000000     2.005000000
C     0.531000000    -1.317000000     0.009000000
H     0.910000000    -2.333000000     0.088000000
C     0.822000000    -0.629000000    -1.205000000
C     1.634000000    -1.317000000    -2.219000000
O     1.905000000    -0.762000000    -3.248000000
O     1.814000000    -2.524000000    -2.174000000
