14
-84.47079
C    -1.023000000    -0.751000000    -0.743000000
H    -1.853000000    -1.297000000    -1.183000000
C    -1.111000000    -0.420000000     0.603000000
H    -2.023000000    -0.643000000     1.151000000
C    -0.054000000     0.290000000     1.188000000
H    -0.069000000     0.659000000     2.198000000
C     1.122000000     0.470000000     0.496000000
H     1.862000000     1.133000000     0.935000000
C     1.301000000    -0.052000000    -0.776000000
H     2.235000000     0.131000000    -1.299000000
C     0.145000000    -0.474000000    -1.438000000
C     0.266000000    -0.772000000    -2.904000000
O    -0.833000000    -0.919000000    -3.452000000
O     1.245000000    -0.488000000    -3.588000000
