14
-89.33332
C    -0.237000000     1.368000000    -0.438000000
H    -0.479000000     2.401000000    -0.674000000
C    -0.850000000     0.746000000     0.607000000
H    -1.568000000     1.262000000     1.239000000
C    -0.511000000    -0.526000000     1.004000000
H    -1.027000000    -0.975000000     1.792000000
C     0.472000000    -1.181000000     0.262000000
H     0.657000000    -2.234000000     0.460000000
C     1.014000000    -0.643000000    -0.920000000
H     1.665000000    -1.310000000    -1.479000000
C     0.685000000     0.703000000    -1.247000000
C     1.268000000     1.422000000    -2.454000000
O     0.907000000     2.546000000    -2.792000000
O     2.102000000     0.822000000    -3.095000000
