14
-89.77727
C    -0.414000000     0.662000000    -1.264000000
H    -0.723000000     1.230000000    -2.138000000
C    -1.074000000     0.809000000    -0.031000000
H    -1.964000000     1.431000000     0.017000000
C    -0.611000000     0.123000000     1.102000000
H    -1.150000000     0.088000000     2.045000000
C     0.509000000    -0.665000000     0.966000000
H     0.845000000    -1.230000000     1.832000000
C     1.182000000    -0.814000000    -0.222000000
H     2.097000000    -1.379000000    -0.378000000
C     0.728000000    -0.207000000    -1.364000000
C     1.572000000    -0.216000000    -2.631000000
O     1.121000000     0.321000000    -3.636000000
O     2.623000000    -0.815000000    -2.703000000
