14
-82.65007
C    -0.230000000     1.196000000    -0.842000000
H    -0.531000000     2.051000000    -1.443000000
C    -1.148000000     0.671000000     0.071000000
H    -2.114000000     1.158000000     0.175000000
C    -0.852000000    -0.476000000     0.762000000
H    -1.596000000    -0.867000000     1.478000000
C     0.477000000    -0.952000000     0.777000000
H     0.766000000    -1.841000000     1.331000000
C     1.442000000    -0.403000000    -0.111000000
H     2.363000000    -0.893000000    -0.414000000
C     1.074000000     0.709000000    -0.925000000
C     2.049000000     1.362000000    -1.832000000
O     1.718000000     2.278000000    -2.552000000
O     3.242000000     1.102000000    -1.858000000
