14
-85.17208
C    -0.286000000     1.409000000    -0.488000000
H    -0.507000000     2.436000000    -0.766000000
C    -0.603000000     0.925000000     0.813000000
H    -1.018000000     1.597000000     1.560000000
C    -0.241000000    -0.453000000     1.121000000
H    -0.464000000    -0.878000000     2.066000000
C     0.218000000    -1.302000000     0.128000000
H     0.454000000    -2.332000000     0.385000000
C     0.681000000    -0.744000000    -1.077000000
H     1.168000000    -1.445000000    -1.750000000
C     0.374000000     0.593000000    -1.439000000
C     0.707000000     1.143000000    -2.827000000
O     0.308000000     2.240000000    -3.106000000
O     1.209000000     0.415000000    -3.622000000
