14
-77.77502
C    -0.363000000     1.319000000    -0.322000000
H    -0.891000000     2.263000000    -0.435000000
C    -0.739000000     0.687000000     0.846000000
H    -1.405000000     1.206000000     1.529000000
C    -0.218000000    -0.534000000     1.113000000
H    -0.524000000    -1.086000000     1.933000000
C     0.637000000    -1.107000000     0.145000000
H     0.908000000    -2.148000000     0.300000000
C     0.875000000    -0.474000000    -1.117000000
H     1.495000000    -0.977000000    -1.854000000
C     0.440000000     0.780000000    -1.342000000
C     0.595000000     1.442000000    -2.698000000
O     0.232000000     2.566000000    -2.752000000
O     1.182000000     0.952000000    -3.638000000
