14
-89.35512
C    -1.209000000     0.737000000     0.497000000
H    -1.963000000     1.360000000     0.972000000
C    -0.472000000    -0.143000000     1.215000000
H    -0.651000000    -0.347000000     2.267000000
C     0.634000000    -0.794000000     0.672000000
H     1.205000000    -1.472000000     1.222000000
C     0.901000000    -0.648000000    -0.674000000
H     1.685000000    -1.236000000    -1.144000000
C     0.191000000     0.298000000    -1.431000000
H     0.418000000     0.387000000    -2.490000000
C    -0.865000000     0.995000000    -0.863000000
C    -1.570000000     1.984000000    -1.784000000
O    -2.303000000     2.795000000    -1.212000000
O    -1.230000000     2.143000000    -2.930000000
