14
-82.39062
C    -0.623000000     1.312000000    -0.387000000
H    -1.206000000     2.222000000    -0.503000000
C    -0.517000000     0.772000000     0.916000000
H    -1.006000000     1.317000000     1.719000000
C    -0.078000000    -0.501000000     1.129000000
H    -0.159000000    -0.901000000     2.086000000
C     0.623000000    -1.125000000     0.127000000
H     1.022000000    -2.132000000     0.218000000
C     0.809000000    -0.489000000    -1.126000000
H     1.228000000    -1.007000000    -1.984000000
C     0.159000000     0.726000000    -1.407000000
C     0.151000000     1.284000000    -2.812000000
O    -0.224000000     2.398000000    -3.094000000
O     0.616000000     0.571000000    -3.643000000
