14
-84.77552
C    -0.762000000     0.558000000    -1.072000000
H    -1.328000000     1.037000000    -1.866000000
C    -0.255000000     1.289000000     0.017000000
H    -0.680000000     2.283000000     0.120000000
C     0.536000000     0.618000000     0.954000000
H     0.844000000     1.125000000     1.890000000
C     0.767000000    -0.737000000     0.798000000
H     1.286000000    -1.309000000     1.563000000
C     0.177000000    -1.436000000    -0.271000000
H     0.359000000    -2.499000000    -0.406000000
C    -0.554000000    -0.822000000    -1.212000000
C    -1.063000000    -1.513000000    -2.425000000
O    -1.458000000    -0.920000000    -3.418000000
O    -1.255000000    -2.707000000    -2.387000000
