14
-77.98433
C    -1.332000000     0.563000000    -0.382000000
H    -2.322000000     0.998000000    -0.489000000
C    -1.027000000    -0.103000000     0.854000000
H    -1.678000000    -0.146000000     1.724000000
C     0.275000000    -0.574000000     1.076000000
H     0.580000000    -1.017000000     1.939000000
C     1.121000000    -0.538000000     0.004000000
H     2.140000000    -0.875000000     0.176000000
C     0.820000000     0.122000000    -1.177000000
H     1.614000000     0.209000000    -1.915000000
C    -0.434000000     0.707000000    -1.391000000
C    -0.680000000     1.459000000    -2.617000000
O    -1.784000000     1.541000000    -3.058000000
O     0.214000000     1.903000000    -3.320000000
