14
-86.57200
C    -1.278000000     0.432000000    -0.571000000
H    -2.249000000     0.826000000    -0.862000000
C    -0.788000000     0.776000000     0.685000000
H    -1.372000000     1.390000000     1.366000000
C     0.459000000     0.328000000     1.050000000
H     0.947000000     0.600000000     2.030000000
C     1.165000000    -0.590000000     0.246000000
H     2.144000000    -0.985000000     0.504000000
C     0.611000000    -1.005000000    -0.966000000
H     1.202000000    -1.568000000    -1.684000000
C    -0.589000000    -0.428000000    -1.368000000
C    -1.092000000    -0.711000000    -2.712000000
O    -2.193000000    -0.397000000    -3.115000000
O    -0.432000000    -1.551000000    -3.352000000
