14
-93.35304
C    -1.127000000     0.897000000    -0.360000000
H    -2.030000000     1.481000000    -0.514000000
C    -0.798000000     0.476000000     0.966000000
H    -1.458000000     0.683000000     1.805000000
C     0.293000000    -0.376000000     1.164000000
H     0.559000000    -0.629000000     2.176000000
C     1.090000000    -0.726000000     0.073000000
H     1.933000000    -1.406000000     0.160000000
C     0.738000000    -0.306000000    -1.217000000
H     1.297000000    -0.752000000    -2.036000000
C    -0.349000000     0.523000000    -1.420000000
C    -0.562000000     1.158000000    -2.803000000
O    -1.604000000     1.788000000    -3.119000000
O     0.320000000     0.921000000    -3.644000000
