14
-86.00516
C    -1.015000000     0.560000000    -0.812000000
H    -1.800000000     1.202000000    -1.204000000
C    -0.721000000     0.868000000     0.500000000
H    -1.250000000     1.641000000     1.051000000
C     0.265000000     0.213000000     1.157000000
H     0.574000000     0.491000000     2.148000000
C     0.942000000    -0.824000000     0.542000000
H     1.765000000    -1.320000000     1.049000000
C     0.686000000    -1.121000000    -0.801000000
H     1.319000000    -1.855000000    -1.292000000
C    -0.291000000    -0.394000000    -1.509000000
C    -0.744000000    -0.694000000    -2.929000000
O    -1.641000000    -0.009000000    -3.414000000
O    -0.429000000    -1.705000000    -3.507000000
