14
-86.87746
C    -1.131000000     0.993000000    -0.192000000
H    -1.785000000     1.847000000    -0.038000000
C    -0.780000000     0.350000000     0.997000000
H    -1.172000000     0.565000000     1.988000000
C     0.223000000    -0.622000000     1.034000000
H     0.495000000    -1.100000000     1.982000000
C     0.906000000    -0.963000000    -0.127000000
H     1.773000000    -1.617000000    -0.085000000
C     0.591000000    -0.285000000    -1.323000000
H     1.203000000    -0.542000000    -2.184000000
C    -0.393000000     0.722000000    -1.419000000
C    -0.722000000     1.452000000    -2.697000000
O    -1.423000000     2.440000000    -2.660000000
O    -0.258000000     1.097000000    -3.776000000
