14
-82.84684
C    -0.852000000    -1.198000000    -0.260000000
H    -1.531000000    -2.042000000    -0.356000000
C    -0.813000000    -0.503000000     0.937000000
H    -1.215000000    -0.968000000     1.833000000
C     0.046000000     0.570000000     1.101000000
H     0.154000000     1.115000000     2.038000000
C     0.819000000     0.967000000     0.028000000
H     1.473000000     1.832000000     0.097000000
C     0.788000000     0.377000000    -1.239000000
H     1.304000000     0.823000000    -2.085000000
C    -0.085000000    -0.657000000    -1.453000000
C    -0.298000000    -1.305000000    -2.754000000
O    -1.168000000    -2.138000000    -2.870000000
O     0.357000000    -0.966000000    -3.734000000
