14
-88.72094
C    -1.199000000    -0.807000000     0.285000000
H    -2.057000000    -1.382000000     0.623000000
C    -0.556000000     0.004000000     1.191000000
H    -0.971000000     0.177000000     2.181000000
C     0.462000000     0.829000000     0.746000000
H     1.002000000     1.473000000     1.464000000
C     0.922000000     0.727000000    -0.511000000
H     1.778000000     1.264000000    -0.913000000
C     0.361000000    -0.251000000    -1.316000000
H     0.801000000    -0.414000000    -2.296000000
C    -0.769000000    -1.028000000    -0.971000000
C    -1.340000000    -2.136000000    -1.880000000
O    -2.166000000    -2.919000000    -1.368000000
O    -0.801000000    -2.278000000    -2.982000000
