14
-84.25952
C    -0.642000000    -1.321000000     0.254000000
H    -0.926000000    -2.342000000     0.498000000
C    -0.054000000    -0.521000000     1.208000000
H     0.131000000    -0.885000000     2.215000000
C     0.481000000     0.675000000     0.857000000
H     0.861000000     1.306000000     1.710000000
C     0.418000000     1.102000000    -0.438000000
H     0.727000000     2.122000000    -0.652000000
C    -0.294000000     0.344000000    -1.379000000
H    -0.515000000     0.806000000    -2.338000000
C    -0.733000000    -0.930000000    -1.042000000
C    -1.403000000    -1.698000000    -2.175000000
O    -2.209000000    -2.606000000    -1.862000000
O    -1.053000000    -1.520000000    -3.289000000
