14
-80.12244
C    -0.656000000    -1.329000000    -0.214000000
H    -1.162000000    -2.291000000    -0.209000000
C    -0.268000000    -0.816000000     1.022000000
H    -0.593000000    -1.336000000     1.920000000
C     0.445000000     0.313000000     1.073000000
H     0.807000000     0.652000000     1.946000000
C     0.611000000     1.077000000    -0.050000000
H     1.191000000     1.995000000     0.006000000
C     0.178000000     0.704000000    -1.287000000
H     0.265000000     1.362000000    -2.148000000
C    -0.472000000    -0.553000000    -1.394000000
C    -1.157000000    -0.916000000    -2.687000000
O    -2.161000000    -1.585000000    -2.672000000
O    -0.690000000    -0.607000000    -3.754000000
