14
-85.31717
C    -0.790000000    -1.108000000     0.546000000
H    -1.178000000    -2.019000000     0.994000000
C    -0.241000000    -0.055000000     1.282000000
H    -0.238000000     0.001000000     2.368000000
C     0.448000000     0.959000000     0.634000000
H     0.920000000     1.751000000     1.212000000
C     0.434000000     1.026000000    -0.720000000
H     0.999000000     1.793000000    -1.244000000
C    -0.045000000    -0.096000000    -1.459000000
H     0.151000000    -0.029000000    -2.526000000
C    -0.702000000    -1.166000000    -0.848000000
C    -1.064000000    -2.423000000    -1.618000000
O    -1.465000000    -3.436000000    -1.069000000
O    -0.995000000    -2.369000000    -2.802000000
