14
-85.06775
C    -0.754000000    -1.084000000     0.743000000
H    -1.322000000    -1.726000000     1.412000000
C    -0.236000000     0.066000000     1.294000000
H    -0.566000000     0.366000000     2.285000000
C     0.527000000     0.953000000     0.562000000
H     0.902000000     1.824000000     1.124000000
C     0.719000000     0.743000000    -0.824000000
H     1.250000000     1.547000000    -1.327000000
C     0.264000000    -0.419000000    -1.404000000
H     0.297000000    -0.629000000    -2.470000000
C    -0.504000000    -1.309000000    -0.634000000
C    -1.099000000    -2.577000000    -1.269000000
O    -1.904000000    -3.266000000    -0.663000000
O    -0.847000000    -2.909000000    -2.394000000
