14
-86.72872
C    -0.574000000    -1.130000000     0.774000000
H    -1.065000000    -1.890000000     1.377000000
C     0.019000000    -0.021000000     1.330000000
H     0.052000000    -0.024000000     2.417000000
C     0.459000000     0.982000000     0.518000000
H     0.714000000     1.902000000     0.925000000
C     0.514000000     0.815000000    -0.822000000
H     0.952000000     1.520000000    -1.524000000
C    -0.113000000    -0.281000000    -1.412000000
H    -0.190000000    -0.378000000    -2.492000000
C    -0.751000000    -1.191000000    -0.621000000
C    -1.382000000    -2.413000000    -1.229000000
O    -1.459000000    -3.488000000    -0.636000000
O    -1.649000000    -2.349000000    -2.440000000
