14
-84.62569
C     0.756000000     0.255000000     1.248000000
H     1.339000000     0.547000000     2.117000000
C     0.775000000     1.031000000     0.105000000
H     1.532000000     1.811000000     0.109000000
C     0.110000000     0.681000000    -1.031000000
H     0.170000000     1.296000000    -1.882000000
C    -0.771000000    -0.438000000    -0.981000000
H    -1.348000000    -0.683000000    -1.869000000
C    -0.823000000    -1.224000000     0.221000000
H    -1.473000000    -2.091000000     0.299000000
C    -0.134000000    -0.815000000     1.314000000
C    -0.352000000    -1.644000000     2.526000000
O    -1.371000000    -2.221000000     2.735000000
O     0.572000000    -1.712000000     3.353000000
