14
-87.19684
C    -0.680000000    -1.321000000     0.209000000
H    -1.223000000    -2.257000000     0.302000000
C    -1.133000000    -0.106000000     0.704000000
H    -2.144000000    -0.028000000     1.096000000
C    -0.437000000     1.096000000     0.380000000
H    -0.970000000     1.989000000     0.573000000
C     0.709000000     1.016000000    -0.404000000
H     1.344000000     1.880000000    -0.582000000
C     1.255000000    -0.233000000    -0.726000000
H     2.232000000    -0.275000000    -1.201000000
C     0.544000000    -1.407000000    -0.427000000
C     1.190000000    -2.751000000    -0.770000000
O     0.586000000    -3.804000000    -0.691000000
O     2.211000000    -2.672000000    -1.472000000
