14
-79.36148
C    -0.740000000    -1.303000000     0.206000000
H    -1.357000000    -2.181000000     0.381000000
C    -0.616000000    -0.329000000     1.135000000
H    -1.125000000    -0.289000000     2.095000000
C     0.148000000     0.839000000     0.867000000
H     0.274000000     1.562000000     1.654000000
C     0.765000000     1.049000000    -0.307000000
H     1.239000000     1.982000000    -0.599000000
C     0.606000000     0.035000000    -1.258000000
H     1.043000000     0.298000000    -2.218000000
C    -0.192000000    -1.159000000    -1.053000000
C    -0.287000000    -2.242000000    -2.111000000
O    -0.585000000    -3.419000000    -1.865000000
O    -0.132000000    -1.952000000    -3.247000000
