14
-83.24407
C    -0.138000000    -1.046000000     0.828000000
H    -0.263000000    -1.818000000     1.582000000
C    -0.443000000     0.199000000     1.228000000
H    -0.754000000     0.401000000     2.250000000
C    -0.269000000     1.153000000     0.287000000
H    -0.437000000     2.213000000     0.624000000
C     0.123000000     0.836000000    -1.005000000
H     0.239000000     1.550000000    -1.816000000
C     0.556000000    -0.459000000    -1.300000000
H     1.104000000    -0.660000000    -2.217000000
C     0.385000000    -1.445000000    -0.397000000
C     0.719000000    -2.914000000    -0.718000000
O     0.394000000    -3.799000000     0.048000000
O     1.392000000    -3.173000000    -1.706000000
