14
-89.43257
C    -1.038000000    -0.841000000     0.664000000
H    -1.827000000    -1.408000000     1.150000000
C    -0.380000000     0.271000000     1.261000000
H    -0.768000000     0.571000000     2.231000000
C     0.607000000     0.952000000     0.518000000
H     1.119000000     1.912000000     0.869000000
C     0.896000000     0.546000000    -0.753000000
H     1.581000000     1.066000000    -1.418000000
C     0.282000000    -0.540000000    -1.373000000
H     0.470000000    -0.861000000    -2.395000000
C    -0.660000000    -1.264000000    -0.595000000
C    -1.246000000    -2.495000000    -1.197000000
O    -1.551000000    -3.381000000    -0.406000000
O    -1.601000000    -2.499000000    -2.371000000
