14
-82.50852
C     1.449000000     0.137000000     0.085000000
H     2.531000000     0.114000000     0.189000000
C     0.566000000    -0.454000000     1.007000000
H     0.947000000    -0.857000000     1.941000000
C    -0.823000000    -0.443000000     0.867000000
H    -1.486000000    -0.958000000     1.579000000
C    -1.319000000     0.267000000    -0.185000000
H    -2.377000000     0.349000000    -0.422000000
C    -0.441000000     0.684000000    -1.227000000
H    -0.945000000     1.107000000    -2.093000000
C     0.965000000     0.564000000    -1.133000000
C     1.946000000     1.033000000    -2.225000000
O     3.126000000     0.920000000    -2.025000000
O     1.596000000     1.713000000    -3.163000000
