14
-80.98982
C     1.098000000    -0.850000000    -0.539000000
H     1.917000000    -1.536000000    -0.738000000
C     0.187000000    -1.162000000     0.483000000
H     0.396000000    -1.990000000     1.155000000
C    -0.854000000    -0.311000000     0.876000000
H    -1.409000000    -0.588000000     1.779000000
C    -1.034000000     0.871000000     0.169000000
H    -1.815000000     1.573000000     0.450000000
C    -0.126000000     1.238000000    -0.829000000
H    -0.397000000     2.181000000    -1.297000000
C     1.004000000     0.431000000    -1.175000000
C     1.973000000     0.895000000    -2.191000000
O     2.946000000     0.189000000    -2.579000000
O     1.931000000     1.962000000    -2.721000000
