14
-88.74312
C     1.140000000    -0.771000000    -0.484000000
H     1.965000000    -1.431000000    -0.741000000
C     0.427000000    -1.084000000     0.676000000
H     0.803000000    -1.870000000     1.325000000
C    -0.625000000    -0.229000000     1.044000000
H    -1.167000000    -0.453000000     2.042000000
C    -0.972000000     0.801000000     0.195000000
H    -1.826000000     1.371000000     0.552000000
C    -0.316000000     1.035000000    -1.035000000
H    -0.637000000     1.891000000    -1.623000000
C     0.769000000     0.268000000    -1.337000000
C     1.569000000     0.515000000    -2.621000000
O     2.697000000     0.094000000    -2.629000000
O     1.179000000     1.280000000    -3.529000000
