14
-84.77332
C    -0.099000000     1.442000000     0.211000000
H    -0.128000000     2.506000000     0.434000000
C    -0.096000000     0.471000000     1.227000000
H    -0.080000000     0.712000000     2.287000000
C    -0.084000000    -0.872000000     0.866000000
H    -0.263000000    -1.620000000     1.580000000
C    -0.057000000    -1.266000000    -0.438000000
H    -0.132000000    -2.317000000    -0.707000000
C     0.182000000    -0.305000000    -1.447000000
H     0.197000000    -0.610000000    -2.490000000
C     0.144000000     1.048000000    -1.117000000
C     0.257000000     2.155000000    -2.183000000
O     0.255000000     3.371000000    -1.992000000
O     0.287000000     1.849000000    -3.365000000
