14
-77.91840
C     0.895000000     1.021000000     0.467000000
H     1.620000000     1.694000000     0.918000000
C     0.201000000     0.076000000     1.347000000
H     0.201000000     0.139000000     2.432000000
C    -0.548000000    -0.851000000     0.712000000
H    -1.095000000    -1.503000000     1.363000000
C    -0.717000000    -0.811000000    -0.708000000
H    -1.361000000    -1.539000000    -1.193000000
C    -0.162000000     0.203000000    -1.490000000
H    -0.401000000     0.112000000    -2.547000000
C     0.718000000     1.120000000    -0.930000000
C     1.275000000     2.214000000    -1.746000000
O     2.202000000     2.896000000    -1.316000000
O     1.061000000     2.168000000    -2.916000000
