14
-89.43084
C     1.166000000     0.561000000     0.713000000
H     2.122000000     0.834000000     1.150000000
C     0.584000000    -0.681000000     0.990000000
H     0.968000000    -1.334000000     1.769000000
C    -0.467000000    -1.150000000     0.164000000
H    -0.860000000    -2.171000000     0.232000000
C    -1.001000000    -0.258000000    -0.798000000
H    -1.749000000    -0.501000000    -1.549000000
C    -0.510000000     1.025000000    -0.908000000
H    -0.921000000     1.766000000    -1.589000000
C     0.564000000     1.425000000    -0.183000000
C     1.217000000     2.713000000    -0.507000000
O     2.415000000     2.894000000    -0.463000000
O     0.432000000     3.620000000    -0.883000000
