14
-80.81107
C    -0.755000000    -0.241000000     1.235000000
H    -1.423000000    -0.659000000     1.983000000
C    -1.051000000    -0.865000000     0.041000000
H    -1.855000000    -1.596000000     0.067000000
C    -0.264000000    -0.592000000    -1.072000000
H    -0.430000000    -1.121000000    -2.001000000
C     0.788000000     0.353000000    -0.945000000
H     1.418000000     0.620000000    -1.789000000
C     1.121000000     0.865000000     0.260000000
H     1.897000000     1.598000000     0.466000000
C     0.341000000     0.642000000     1.415000000
C     0.799000000     1.260000000     2.772000000
O     0.185000000     0.985000000     3.776000000
O     1.661000000     2.135000000     2.892000000
