14
-91.67575
C     0.450000000     0.634000000     1.239000000
H     0.824000000     0.870000000     2.232000000
C    -0.261000000    -0.563000000     1.173000000
H    -0.506000000    -1.176000000     2.037000000
C    -0.636000000    -1.006000000    -0.084000000
H    -1.166000000    -1.917000000    -0.047000000
C    -0.347000000    -0.284000000    -1.256000000
H    -0.739000000    -0.583000000    -2.225000000
C     0.323000000     0.941000000    -1.162000000
H     0.666000000     1.420000000    -2.076000000
C     0.750000000     1.386000000     0.107000000
C     1.600000000     2.665000000     0.279000000
O     1.513000000     3.215000000     1.351000000
O     2.318000000     2.958000000    -0.642000000
