14
-89.19698
C    -0.047000000     0.809000000     1.211000000
H    -0.202000000     1.329000000     2.153000000
C    -0.327000000    -0.551000000     1.148000000
H    -0.489000000    -1.121000000     2.059000000
C    -0.267000000    -1.168000000    -0.086000000
H    -0.461000000    -2.256000000    -0.179000000
C     0.181000000    -0.482000000    -1.192000000
H     0.318000000    -1.037000000    -2.117000000
C     0.610000000     0.833000000    -1.038000000
H     0.956000000     1.348000000    -1.931000000
C     0.405000000     1.557000000     0.140000000
C     0.509000000     3.045000000     0.096000000
O    -0.233000000     3.612000000     0.890000000
O     1.215000000     3.589000000    -0.701000000
