14
-85.96778
C     0.263000000     0.851000000     1.286000000
H     0.312000000     1.337000000     2.257000000
C    -0.038000000    -0.544000000     1.209000000
H    -0.105000000    -1.041000000     2.174000000
C    -0.188000000    -1.258000000     0.032000000
H    -0.444000000    -2.297000000    -0.025000000
C    -0.102000000    -0.510000000    -1.189000000
H    -0.156000000    -1.010000000    -2.153000000
C     0.122000000     0.831000000    -1.155000000
H     0.198000000     1.396000000    -2.081000000
C     0.379000000     1.544000000     0.040000000
C     0.551000000     3.033000000    -0.033000000
O     0.411000000     3.684000000     0.978000000
O     0.723000000     3.633000000    -1.066000000
