14
-87.28618
C    -0.654000000    -0.511000000     1.295000000
H    -1.196000000    -0.806000000     2.190000000
C    -0.910000000    -1.059000000     0.009000000
H    -1.676000000    -1.824000000    -0.090000000
C    -0.289000000    -0.488000000    -1.122000000
H    -0.328000000    -0.804000000    -2.181000000
C     0.676000000     0.539000000    -0.921000000
H     1.159000000     0.920000000    -1.817000000
C     0.962000000     1.037000000     0.294000000
H     1.642000000     1.874000000     0.428000000
C     0.372000000     0.528000000     1.461000000
C     0.582000000     1.195000000     2.819000000
O     0.097000000     0.656000000     3.850000000
O     1.249000000     2.189000000     2.890000000
