14
-85.49357
C    -0.644000000    -0.520000000     1.280000000
H    -1.011000000    -1.046000000     2.157000000
C    -0.169000000    -1.310000000     0.155000000
H    -0.179000000    -2.396000000     0.121000000
C     0.372000000    -0.648000000    -1.017000000
H     0.793000000    -1.179000000    -1.889000000
C     0.348000000     0.719000000    -1.070000000
H     0.712000000     1.189000000    -1.980000000
C    -0.084000000     1.480000000     0.020000000
H    -0.056000000     2.563000000    -0.067000000
C    -0.511000000     0.860000000     1.242000000
C    -1.022000000     1.734000000     2.393000000
O    -1.592000000     1.174000000     3.352000000
O    -0.563000000     2.836000000     2.515000000
