14
-89.08322
C    -0.691000000    -0.044000000     1.319000000
H    -1.141000000    -0.159000000     2.301000000
C    -0.131000000    -1.151000000     0.642000000
H     0.009000000    -2.144000000     1.061000000
C     0.502000000    -0.942000000    -0.566000000
H     1.209000000    -1.659000000    -0.929000000
C     0.471000000     0.303000000    -1.199000000
H     0.949000000     0.406000000    -2.170000000
C    -0.105000000     1.392000000    -0.486000000
H    -0.193000000     2.312000000    -1.057000000
C    -0.754000000     1.199000000     0.737000000
C    -1.413000000     2.373000000     1.405000000
O    -2.134000000     2.133000000     2.356000000
O    -1.332000000     3.512000000     0.932000000
