14
-81.26636
C    -0.140000000     0.636000000     1.324000000
H    -0.001000000     0.964000000     2.350000000
C    -0.105000000    -0.713000000     1.038000000
H    -0.225000000    -1.466000000     1.813000000
C    -0.039000000    -1.175000000    -0.290000000
H    -0.043000000    -2.188000000    -0.491000000
C     0.192000000    -0.264000000    -1.296000000
H     0.160000000    -0.585000000    -2.334000000
C     0.119000000     1.082000000    -0.966000000
H     0.204000000     1.819000000    -1.761000000
C     0.014000000     1.537000000     0.304000000
C     0.101000000     2.998000000     0.590000000
O     0.060000000     3.377000000     1.696000000
O     0.364000000     3.820000000    -0.330000000
