14
-85.58200
C    -0.708000000    -0.139000000     1.361000000
H    -1.256000000    -0.388000000     2.266000000
C    -0.040000000    -1.147000000     0.652000000
H    -0.046000000    -2.139000000     1.098000000
C     0.607000000    -0.910000000    -0.605000000
H     0.991000000    -1.707000000    -1.200000000
C     0.594000000     0.387000000    -1.074000000
H     0.986000000     0.683000000    -2.044000000
C    -0.065000000     1.435000000    -0.445000000
H    -0.029000000     2.393000000    -0.958000000
C    -0.741000000     1.210000000     0.782000000
C    -1.470000000     2.315000000     1.377000000
O    -2.273000000     2.069000000     2.278000000
O    -1.249000000     3.470000000     1.070000000
