14
-90.06009
C     0.154000000     1.442000000     0.005000000
H     0.405000000     2.490000000     0.149000000
C     0.958000000     0.517000000     0.731000000
H     1.741000000     0.962000000     1.340000000
C     0.678000000    -0.822000000     0.624000000
H     1.121000000    -1.546000000     1.284000000
C    -0.338000000    -1.230000000    -0.226000000
H    -0.483000000    -2.299000000    -0.355000000
C    -1.045000000    -0.345000000    -1.065000000
H    -1.719000000    -0.768000000    -1.805000000
C    -0.775000000     1.031000000    -0.967000000
C    -1.598000000     1.984000000    -1.801000000
O    -1.173000000     3.098000000    -1.947000000
O    -2.656000000     1.622000000    -2.301000000
