14
-82.00193
C     1.088000000     1.127000000     0.039000000
H     1.704000000     2.000000000     0.240000000
C     0.855000000     0.182000000     1.012000000
H     1.240000000     0.256000000     2.025000000
C    -0.089000000    -0.871000000     0.846000000
H    -0.433000000    -1.596000000     1.605000000
C    -0.741000000    -1.094000000    -0.382000000
H    -1.413000000    -1.924000000    -0.588000000
C    -0.607000000    -0.073000000    -1.361000000
H    -1.161000000    -0.234000000    -2.283000000
C     0.170000000     1.068000000    -1.092000000
C     0.048000000     2.245000000    -2.067000000
O     0.823000000     3.197000000    -1.895000000
O    -0.546000000     2.163000000    -3.129000000
