14
-84.22376
C     1.086000000     0.680000000    -0.748000000
H     1.921000000     1.240000000    -1.161000000
C     1.284000000    -0.264000000     0.217000000
H     2.280000000    -0.540000000     0.555000000
C     0.141000000    -0.915000000     0.836000000
H     0.280000000    -1.708000000     1.544000000
C    -1.117000000    -0.602000000     0.358000000
H    -2.029000000    -1.041000000     0.754000000
C    -1.313000000     0.391000000    -0.540000000
H    -2.345000000     0.523000000    -0.857000000
C    -0.202000000     1.135000000    -1.021000000
C    -0.341000000     2.142000000    -2.137000000
O     0.596000000     2.541000000    -2.824000000
O    -1.422000000     2.714000000    -2.209000000
