14
-85.68400
C     1.035000000     0.935000000    -0.224000000
H     1.960000000     1.487000000    -0.366000000
C     1.110000000    -0.088000000     0.733000000
H     1.992000000    -0.194000000     1.359000000
C    -0.009000000    -0.862000000     0.896000000
H     0.047000000    -1.666000000     1.621000000
C    -1.109000000    -0.686000000     0.071000000
H    -1.999000000    -1.309000000     0.103000000
C    -1.130000000     0.291000000    -0.918000000
H    -2.053000000     0.368000000    -1.486000000
C    -0.048000000     1.177000000    -1.051000000
C     0.032000000     2.267000000    -2.133000000
O     1.104000000     2.683000000    -2.435000000
O    -0.927000000     2.555000000    -2.822000000
