14
-83.83033
C    -1.454000000    -0.344000000     0.038000000
H    -2.504000000    -0.415000000     0.309000000
C    -0.662000000     0.389000000     0.961000000
H    -1.210000000     0.949000000     1.715000000
C     0.721000000     0.616000000     0.826000000
H     1.239000000     1.275000000     1.480000000
C     1.295000000     0.236000000    -0.361000000
H     2.344000000     0.477000000    -0.512000000
C     0.559000000    -0.536000000    -1.261000000
H     1.089000000    -0.872000000    -2.149000000
C    -0.854000000    -0.841000000    -1.145000000
C    -1.656000000    -1.767000000    -2.007000000
O    -2.787000000    -2.095000000    -1.735000000
O    -1.154000000    -2.156000000    -3.072000000
