14
-79.65164
C    -1.049000000     0.381000000    -0.924000000
H    -1.705000000     0.798000000    -1.683000000
C    -0.454000000     1.217000000     0.022000000
H    -0.721000000     2.271000000     0.047000000
C     0.469000000     0.640000000     0.846000000
H     0.858000000     1.163000000     1.725000000
C     0.885000000    -0.629000000     0.706000000
H     1.639000000    -0.961000000     1.414000000
C     0.422000000    -1.397000000    -0.353000000
H     0.723000000    -2.437000000    -0.443000000
C    -0.625000000    -0.868000000    -1.153000000
C    -1.375000000    -1.681000000    -2.152000000
O    -2.302000000    -1.173000000    -2.834000000
O    -1.307000000    -2.916000000    -2.278000000
