14
-76.95811
C    -1.350000000     0.643000000     0.042000000
H    -2.270000000     1.186000000     0.243000000
C    -0.391000000     0.598000000     1.061000000
H    -0.533000000     1.114000000     2.008000000
C     0.830000000     0.060000000     0.931000000
H     1.587000000     0.106000000     1.712000000
C     1.110000000    -0.586000000    -0.333000000
H     2.111000000    -0.961000000    -0.530000000
C     0.243000000    -0.582000000    -1.420000000
H     0.688000000    -1.021000000    -2.309000000
C    -1.022000000    -0.032000000    -1.179000000
C    -2.026000000    -0.022000000    -2.335000000
O    -3.150000000     0.433000000    -2.261000000
O    -1.782000000    -0.613000000    -3.354000000
