14
-79.96184
C    -1.453000000     0.173000000     0.287000000
H    -2.477000000     0.495000000     0.460000000
C    -0.448000000     1.048000000     0.707000000
H    -0.735000000     1.990000000     1.168000000
C     0.858000000     0.737000000     0.478000000
H     1.606000000     1.486000000     0.763000000
C     1.179000000    -0.465000000    -0.233000000
H     2.219000000    -0.637000000    -0.500000000
C     0.176000000    -1.327000000    -0.628000000
H     0.482000000    -2.126000000    -1.299000000
C    -1.165000000    -1.034000000    -0.366000000
C    -2.201000000    -1.947000000    -0.966000000
O    -3.330000000    -1.628000000    -0.888000000
O    -1.893000000    -2.846000000    -1.676000000
