14
-77.68389
C    -1.082000000    -0.412000000     0.946000000
H    -1.819000000    -0.715000000     1.686000000
C     0.206000000    -0.093000000     1.301000000
H     0.512000000    -0.034000000     2.342000000
C     1.123000000     0.176000000     0.337000000
H     2.067000000     0.509000000     0.681000000
C     0.802000000     0.234000000    -0.928000000
H     1.560000000     0.571000000    -1.630000000
C    -0.459000000    -0.191000000    -1.391000000
H    -0.651000000    -0.320000000    -2.453000000
C    -1.470000000    -0.410000000    -0.434000000
C    -2.826000000    -0.733000000    -0.895000000
O    -3.722000000    -1.061000000    -0.151000000
O    -3.095000000    -0.715000000    -2.081000000
