14
-83.14924
C    -0.984000000    -0.612000000     0.932000000
H    -1.570000000    -0.979000000     1.770000000
C     0.243000000     0.011000000     1.231000000
H     0.524000000     0.140000000     2.273000000
C     1.085000000     0.483000000     0.291000000
H     2.076000000     0.879000000     0.601000000
C     0.769000000     0.369000000    -1.046000000
H     1.494000000     0.722000000    -1.775000000
C    -0.484000000    -0.190000000    -1.421000000
H    -0.801000000    -0.389000000    -2.442000000
C    -1.373000000    -0.475000000    -0.423000000
C    -2.784000000    -0.921000000    -0.787000000
O    -3.544000000    -1.205000000     0.138000000
O    -3.211000000    -0.892000000    -1.904000000
