14
-84.18258
C    -0.351000000     0.692000000     1.299000000
H    -0.704000000     1.290000000     2.135000000
C    -0.100000000     1.308000000     0.020000000
H    -0.328000000     2.368000000    -0.053000000
C     0.176000000     0.505000000    -1.108000000
H     0.421000000     0.916000000    -2.008000000
C     0.279000000    -0.852000000    -1.008000000
H     0.528000000    -1.473000000    -1.864000000
C     0.089000000    -1.411000000     0.261000000
H     0.085000000    -2.497000000     0.308000000
C    -0.252000000    -0.668000000     1.387000000
C    -0.602000000    -1.394000000     2.714000000
O    -0.497000000    -2.627000000     2.669000000
O    -0.675000000    -0.804000000     3.727000000
