14
-83.25534
C     0.002000000     1.312000000     0.576000000
H    -0.109000000     2.230000000     1.147000000
C    -0.407000000     0.137000000     1.161000000
H    -0.535000000     0.171000000     2.240000000
C    -0.437000000    -1.051000000     0.508000000
H    -0.827000000    -1.907000000     0.974000000
C    -0.048000000    -1.048000000    -0.817000000
H    -0.036000000    -1.996000000    -1.348000000
C     0.383000000     0.135000000    -1.435000000
H     0.768000000     0.117000000    -2.452000000
C     0.370000000     1.350000000    -0.717000000
C     1.075000000     2.529000000    -1.361000000
O     1.177000000     3.631000000    -0.779000000
O     1.576000000     2.446000000    -2.439000000
