14
-89.17333
C     0.054000000     1.328000000     0.651000000
H    -0.013000000     2.215000000     1.276000000
C    -0.419000000     0.131000000     1.226000000
H    -0.785000000     0.117000000     2.249000000
C    -0.399000000    -1.044000000     0.519000000
H    -0.780000000    -1.927000000     0.965000000
C     0.043000000    -1.060000000    -0.816000000
H     0.036000000    -1.985000000    -1.388000000
C     0.568000000     0.136000000    -1.372000000
H     0.858000000     0.235000000    -2.414000000
C     0.680000000     1.253000000    -0.604000000
C     1.119000000     2.563000000    -1.279000000
O     1.087000000     3.608000000    -0.648000000
O     1.573000000     2.572000000    -2.413000000
