14
-91.01878
C    -0.149000000     1.344000000     0.557000000
H    -0.309000000     2.305000000     1.038000000
C    -0.217000000     0.180000000     1.300000000
H    -0.460000000     0.240000000     2.358000000
C    -0.077000000    -1.053000000     0.629000000
H    -0.267000000    -2.015000000     1.139000000
C     0.231000000    -1.093000000    -0.710000000
H     0.216000000    -2.078000000    -1.168000000
C     0.314000000     0.088000000    -1.432000000
H     0.484000000     0.099000000    -2.505000000
C     0.176000000     1.308000000    -0.808000000
C     0.355000000     2.565000000    -1.643000000
O     0.233000000     3.675000000    -1.105000000
O     0.808000000     2.456000000    -2.743000000
