14
-86.95585
C    -1.136000000     1.025000000    -0.108000000
H    -1.959000000     1.728000000    -0.008000000
C    -0.189000000     0.988000000     0.917000000
H    -0.121000000     1.753000000     1.686000000
C     0.813000000    -0.026000000     0.940000000
H     1.528000000    -0.011000000     1.738000000
C     0.885000000    -0.906000000    -0.143000000
H     1.643000000    -1.675000000    -0.270000000
C     0.001000000    -0.843000000    -1.195000000
H     0.153000000    -1.576000000    -1.983000000
C    -1.055000000     0.072000000    -1.112000000
C    -2.128000000     0.010000000    -2.219000000
O    -2.946000000     0.924000000    -2.198000000
O    -1.892000000    -0.593000000    -3.276000000
