14
-81.89569
C    -0.678000000     1.186000000     0.488000000
H    -0.984000000     2.148000000     0.890000000
C     0.125000000     0.370000000     1.209000000
H     0.328000000     0.543000000     2.263000000
C     0.793000000    -0.695000000     0.587000000
H     1.617000000    -1.172000000     1.159000000
C     0.616000000    -0.977000000    -0.743000000
H     1.150000000    -1.871000000    -1.056000000
C    -0.366000000    -0.219000000    -1.471000000
H    -0.625000000    -0.538000000    -2.477000000
C    -1.015000000     0.872000000    -0.841000000
C    -2.020000000     1.778000000    -1.553000000
O    -2.450000000     2.814000000    -1.081000000
O    -2.367000000     1.464000000    -2.640000000
