14
-86.91403
C    -0.998000000     0.351000000     1.055000000
H    -1.715000000     0.771000000     1.755000000
C    -0.469000000     1.293000000     0.115000000
H    -0.798000000     2.328000000     0.162000000
C     0.345000000     0.791000000    -0.904000000
H     0.855000000     1.353000000    -1.684000000
C     0.617000000    -0.582000000    -0.894000000
H     1.324000000    -0.873000000    -1.666000000
C     0.182000000    -1.471000000     0.080000000
H     0.647000000    -2.450000000     0.172000000
C    -0.638000000    -0.978000000     1.107000000
C    -1.073000000    -1.767000000     2.303000000
O    -1.218000000    -2.955000000     2.097000000
O    -1.068000000    -1.260000000     3.396000000
