14
-78.95588
C    -0.542000000     1.316000000    -0.347000000
H    -1.094000000     2.247000000    -0.448000000
C    -1.242000000     0.127000000    -0.215000000
H    -2.316000000     0.108000000    -0.380000000
C    -0.592000000    -1.032000000    -0.028000000
H    -1.210000000    -1.926000000     0.145000000
C     0.745000000    -1.090000000     0.143000000
H     1.107000000    -2.110000000     0.245000000
C     1.463000000     0.052000000     0.053000000
H     2.530000000    -0.080000000     0.208000000
C     0.841000000     1.353000000    -0.171000000
C     1.624000000     2.658000000    -0.116000000
O     1.005000000     3.688000000     0.002000000
O     2.827000000     2.700000000    -0.037000000
