14
-84.16315
C    -1.057000000     0.931000000    -0.587000000
H    -1.894000000     1.559000000    -0.882000000
C    -1.225000000    -0.456000000    -0.213000000
H    -2.178000000    -0.973000000    -0.299000000
C    -0.164000000    -1.154000000     0.320000000
H    -0.265000000    -2.179000000     0.566000000
C     1.090000000    -0.564000000     0.528000000
H     1.847000000    -1.166000000     1.023000000
C     1.244000000     0.747000000     0.123000000
H     2.197000000     1.249000000     0.267000000
C     0.197000000     1.511000000    -0.422000000
C     0.326000000     3.006000000    -0.630000000
O    -0.591000000     3.659000000    -0.941000000
O     1.402000000     3.590000000    -0.451000000
