14
-85.49806
C    -0.047000000     1.467000000     0.138000000
H    -0.237000000     2.519000000    -0.055000000
C    -1.169000000     0.629000000     0.169000000
H    -2.142000000     1.111000000     0.208000000
C    -0.983000000    -0.779000000     0.098000000
H    -1.913000000    -1.435000000     0.000000000
C     0.315000000    -1.305000000     0.070000000
H     0.504000000    -2.376000000     0.063000000
C     1.422000000    -0.458000000    -0.037000000
H     2.440000000    -0.833000000    -0.103000000
C     1.271000000     0.931000000    -0.014000000
C     2.454000000     1.891000000    -0.200000000
O     2.287000000     3.102000000    -0.224000000
O     3.546000000     1.473000000    -0.390000000
