14
-85.61454
C    -0.878000000     1.036000000    -0.644000000
H    -1.542000000     1.627000000    -1.269000000
C    -1.111000000    -0.276000000    -0.643000000
H    -1.892000000    -0.712000000    -1.259000000
C    -0.220000000    -1.209000000    -0.034000000
H    -0.454000000    -2.253000000     0.053000000
C     0.895000000    -0.755000000     0.656000000
H     1.540000000    -1.506000000     1.104000000
C     1.182000000     0.642000000     0.629000000
H     2.106000000     1.011000000     1.067000000
C     0.265000000     1.548000000     0.023000000
C     0.550000000     3.068000000    -0.078000000
O    -0.236000000     3.762000000    -0.649000000
O     1.544000000     3.501000000     0.439000000
