14
-77.59358
C     0.600000000    -0.475000000    -1.236000000
H     0.888000000    -1.106000000    -2.073000000
C    -0.660000000    -0.808000000    -0.711000000
H    -1.255000000    -1.556000000    -1.228000000
C    -1.161000000    -0.274000000     0.449000000
H    -2.182000000    -0.553000000     0.740000000
C    -0.287000000     0.636000000     1.117000000
H    -0.694000000     1.113000000     2.005000000
C     0.917000000     1.049000000     0.573000000
H     1.613000000     1.464000000     1.298000000
C     1.400000000     0.530000000    -0.669000000
C     2.715000000     0.867000000    -1.257000000
O     3.347000000     0.088000000    -1.923000000
O     3.281000000     1.839000000    -0.820000000
