14
-86.92534
C    -0.888000000    -0.663000000    -1.020000000
H    -1.440000000    -1.286000000    -1.719000000
C    -0.909000000    -0.920000000     0.360000000
H    -1.662000000    -1.569000000     0.800000000
C    -0.087000000    -0.216000000     1.202000000
H    -0.196000000    -0.323000000     2.281000000
C     0.879000000     0.603000000     0.719000000
H     1.562000000     1.125000000     1.384000000
C     0.827000000     0.926000000    -0.644000000
H     1.534000000     1.677000000    -0.987000000
C    -0.004000000     0.230000000    -1.567000000
C     0.171000000     0.615000000    -3.057000000
O    -0.698000000     0.271000000    -3.868000000
O     1.174000000     1.145000000    -3.487000000
