14
-80.99091
C    -0.900000000     0.478000000    -1.053000000
H    -1.611000000     0.671000000    -1.853000000
C    -1.300000000    -0.334000000     0.008000000
H    -2.336000000    -0.656000000     0.083000000
C    -0.360000000    -0.531000000     1.060000000
H    -0.666000000    -1.065000000     2.017000000
C     0.956000000    -0.126000000     0.961000000
H     1.670000000    -0.301000000     1.761000000
C     1.273000000     0.652000000    -0.160000000
H     2.318000000     0.934000000    -0.259000000
C     0.373000000     0.921000000    -1.244000000
C     0.818000000     1.479000000    -2.544000000
O     0.067000000     2.236000000    -3.202000000
O     1.908000000     1.299000000    -2.938000000
