14
-79.11712
C    -0.793000000     0.360000000     1.176000000
H    -1.366000000     0.738000000     2.019000000
C     0.040000000     1.267000000     0.468000000
H     0.202000000     2.303000000     0.756000000
C     0.717000000     0.794000000    -0.609000000
H     1.476000000     1.412000000    -1.062000000
C     0.568000000    -0.544000000    -1.032000000
H     1.197000000    -0.871000000    -1.856000000
C    -0.191000000    -1.465000000    -0.331000000
H    -0.389000000    -2.475000000    -0.683000000
C    -0.927000000    -0.982000000     0.822000000
C    -1.874000000    -1.908000000     1.526000000
O    -1.847000000    -3.044000000     1.253000000
O    -2.658000000    -1.568000000     2.376000000
