14
-93.45578
C    -0.408000000    -0.103000000    -1.443000000
H    -0.751000000    -0.205000000    -2.469000000
C    -1.145000000    -0.665000000    -0.381000000
H    -2.069000000    -1.202000000    -0.583000000
C    -0.675000000    -0.490000000     0.922000000
H    -1.297000000    -0.852000000     1.698000000
C     0.601000000     0.056000000     1.172000000
H     1.062000000     0.131000000     2.154000000
C     1.355000000     0.605000000     0.115000000
H     2.304000000     1.085000000     0.341000000
C     0.825000000     0.580000000    -1.181000000
C     1.649000000     1.209000000    -2.356000000
O     1.138000000     1.389000000    -3.470000000
O     2.808000000     1.486000000    -2.139000000
