14
-83.57967
C     1.055000000    -0.179000000    -1.003000000
H     1.707000000    -0.329000000    -1.859000000
C     0.083000000    -1.092000000    -0.657000000
H     0.149000000    -2.082000000    -1.101000000
C    -0.881000000    -0.776000000     0.279000000
H    -1.707000000    -1.410000000     0.507000000
C    -0.858000000     0.454000000     0.911000000
H    -1.581000000     0.609000000     1.707000000
C     0.126000000     1.406000000     0.596000000
H     0.107000000     2.335000000     1.160000000
C     1.093000000     1.048000000    -0.329000000
C     2.135000000     2.028000000    -0.644000000
O     3.129000000     1.743000000    -1.325000000
O     1.943000000     3.194000000    -0.456000000
