14
-79.82024
C     1.133000000    -0.105000000    -0.908000000
H     1.964000000    -0.276000000    -1.587000000
C     0.124000000    -1.034000000    -0.864000000
H     0.107000000    -1.929000000    -1.482000000
C    -0.933000000    -0.798000000    -0.021000000
H    -1.762000000    -1.501000000     0.204000000
C    -0.982000000     0.367000000     0.801000000
H    -1.745000000     0.572000000     1.548000000
C     0.072000000     1.265000000     0.734000000
H     0.070000000     2.158000000     1.354000000
C     1.200000000     0.970000000    -0.043000000
C     2.422000000     1.901000000    -0.034000000
O     3.379000000     1.618000000    -0.688000000
O     2.380000000     3.057000000     0.331000000
