14
-87.64515
C     1.175000000     0.097000000    -0.848000000
H     2.154000000     0.052000000    -1.319000000
C     0.893000000    -0.871000000     0.073000000
H     1.544000000    -1.696000000     0.352000000
C    -0.257000000    -0.843000000     0.851000000
H    -0.419000000    -1.596000000     1.588000000
C    -1.142000000     0.202000000     0.642000000
H    -1.969000000     0.390000000     1.322000000
C    -0.874000000     1.137000000    -0.378000000
H    -1.623000000     1.874000000    -0.656000000
C     0.254000000     1.052000000    -1.145000000
C     0.524000000     2.000000000    -2.238000000
O     1.314000000     1.717000000    -3.123000000
O     0.115000000     3.179000000    -2.021000000
