14
-77.68926
C     1.384000000    -0.332000000    -0.394000000
H     2.404000000    -0.708000000    -0.375000000
C     0.808000000    -0.416000000     0.933000000
H     1.426000000    -0.635000000     1.800000000
C    -0.553000000    -0.074000000     1.105000000
H    -1.041000000    -0.117000000     2.076000000
C    -1.273000000     0.350000000    -0.045000000
H    -2.292000000     0.665000000     0.166000000
C    -0.658000000     0.458000000    -1.263000000
H    -1.324000000     0.809000000    -2.047000000
C     0.653000000     0.083000000    -1.446000000
C     1.333000000     0.055000000    -2.769000000
O     2.519000000    -0.165000000    -2.862000000
O     0.764000000     0.489000000    -3.709000000
