14
-85.28894
C     1.208000000    -0.314000000     0.832000000
H     2.014000000    -0.520000000     1.531000000
C    -0.107000000    -0.806000000     1.030000000
H    -0.337000000    -1.370000000     1.930000000
C    -1.143000000    -0.475000000     0.199000000
H    -2.188000000    -0.777000000     0.402000000
C    -0.874000000     0.191000000    -0.951000000
H    -1.637000000     0.421000000    -1.690000000
C     0.436000000     0.650000000    -1.153000000
H     0.633000000     1.329000000    -1.979000000
C     1.488000000     0.523000000    -0.216000000
C     2.829000000     1.118000000    -0.468000000
O     3.850000000     0.404000000    -0.293000000
O     2.988000000     2.186000000    -1.002000000
