14
-91.19530
C     1.238000000    -0.511000000     0.668000000
H     2.084000000    -1.022000000     1.121000000
C    -0.052000000    -1.033000000     0.815000000
H    -0.144000000    -1.932000000     1.419000000
C    -1.123000000    -0.437000000     0.164000000
H    -2.189000000    -0.895000000     0.226000000
C    -0.928000000     0.661000000    -0.614000000
H    -1.738000000     1.103000000    -1.188000000
C     0.374000000     1.102000000    -0.824000000
H     0.468000000     1.998000000    -1.432000000
C     1.472000000     0.587000000    -0.164000000
C     2.856000000     1.091000000    -0.335000000
O     3.748000000     0.602000000     0.355000000
O     3.066000000     1.840000000    -1.294000000
