14
-81.27818
C    -1.320000000    -0.160000000     0.758000000
H    -2.351000000    -0.094000000     1.093000000
C    -0.873000000     0.930000000    -0.085000000
H    -1.604000000     1.717000000    -0.254000000
C     0.456000000     1.061000000    -0.575000000
H     0.854000000     1.959000000    -1.001000000
C     1.282000000    -0.045000000    -0.406000000
H     2.320000000    -0.002000000    -0.726000000
C     0.740000000    -1.217000000     0.163000000
H     1.414000000    -2.069000000     0.171000000
C    -0.535000000    -1.302000000     0.793000000
C    -0.977000000    -2.553000000     1.552000000
O    -0.229000000    -3.455000000     1.667000000
O    -2.077000000    -2.646000000     2.135000000
