14
-86.52606
C    -0.395000000    -1.353000000     0.421000000
H    -0.776000000    -2.350000000     0.628000000
C    -1.213000000    -0.397000000    -0.189000000
H    -2.217000000    -0.680000000    -0.493000000
C    -0.705000000     0.786000000    -0.549000000
H    -1.377000000     1.630000000    -0.930000000
C     0.588000000     1.096000000    -0.243000000
H     1.048000000     2.033000000    -0.545000000
C     1.459000000     0.240000000     0.375000000
H     2.489000000     0.584000000     0.436000000
C     0.927000000    -1.007000000     0.772000000
C     1.813000000    -2.047000000     1.452000000
O     1.458000000    -3.206000000     1.663000000
O     2.892000000    -1.631000000     1.848000000
