14
-91.85245
C     0.634000000    -0.787000000     1.099000000
H     1.071000000    -1.419000000     1.868000000
C     0.084000000    -1.363000000    -0.039000000
H     0.017000000    -2.441000000    -0.161000000
C    -0.458000000    -0.535000000    -1.023000000
H    -0.998000000    -1.025000000    -1.821000000
C    -0.468000000     0.871000000    -0.800000000
H    -0.871000000     1.611000000    -1.485000000
C    -0.001000000     1.476000000     0.374000000
H    -0.097000000     2.546000000     0.537000000
C     0.641000000     0.613000000     1.321000000
C     1.202000000     1.190000000     2.590000000
O     1.929000000     0.472000000     3.276000000
O     0.992000000     2.362000000     2.821000000
