14
-84.03258
C     0.351000000    -0.709000000     1.313000000
H     0.518000000    -1.350000000     2.174000000
C    -0.016000000    -1.238000000     0.056000000
H    -0.029000000    -2.323000000    -0.013000000
C    -0.342000000    -0.515000000    -1.073000000
H    -0.721000000    -1.054000000    -1.950000000
C    -0.229000000     0.869000000    -0.988000000
H    -0.631000000     1.511000000    -1.767000000
C     0.155000000     1.472000000     0.175000000
H     0.260000000     2.551000000     0.253000000
C     0.464000000     0.681000000     1.307000000
C     0.842000000     1.335000000     2.571000000
O     1.177000000     0.664000000     3.534000000
O     0.964000000     2.541000000     2.718000000
