14
-85.36414
C     0.829000000    -0.551000000     1.025000000
H     1.623000000    -0.970000000     1.638000000
C     0.304000000    -1.236000000     0.010000000
H     0.470000000    -2.309000000    -0.056000000
C    -0.520000000    -0.649000000    -0.915000000
H    -0.818000000    -1.322000000    -1.807000000
C    -0.889000000     0.702000000    -0.786000000
H    -1.590000000     1.192000000    -1.456000000
C    -0.285000000     1.454000000     0.284000000
H    -0.684000000     2.464000000     0.328000000
C     0.587000000     0.849000000     1.209000000
C     1.323000000     1.703000000     2.223000000
O     2.018000000     1.159000000     3.049000000
O     1.038000000     2.897000000     2.253000000
