14
-72.77809
C     1.165000000    -0.095000000     0.870000000
H     2.072000000    -0.297000000     1.435000000
C     0.735000000    -1.073000000     0.003000000
H     1.257000000    -2.026000000     0.001000000
C    -0.409000000    -0.852000000    -0.750000000
H    -0.794000000    -1.652000000    -1.248000000
C    -1.009000000     0.403000000    -0.755000000
H    -1.925000000     0.464000000    -1.336000000
C    -0.456000000     1.481000000    -0.030000000
H    -1.015000000     2.412000000     0.037000000
C     0.571000000     1.174000000     0.885000000
C     1.003000000     2.108000000     1.946000000
O     1.384000000     1.659000000     2.978000000
O     0.762000000     3.278000000     1.975000000
