14
-88.32710
C     1.296000000     0.637000000     0.392000000
H     2.341000000     0.862000000     0.589000000
C     0.952000000     0.149000000    -0.843000000
H     1.705000000     0.169000000    -1.626000000
C    -0.376000000    -0.238000000    -1.189000000
H    -0.513000000    -0.591000000    -2.123000000
C    -1.300000000    -0.349000000    -0.125000000
H    -2.316000000    -0.686000000    -0.318000000
C    -0.950000000     0.019000000     1.168000000
H    -1.585000000    -0.180000000     2.028000000
C     0.332000000     0.592000000     1.459000000
C     0.819000000     0.816000000     2.889000000
O     2.015000000     1.022000000     3.128000000
O     0.003000000     0.758000000     3.800000000
