14
-90.72241
C     1.486000000    -0.475000000    -0.205000000
H     2.470000000    -0.832000000    -0.501000000
C     0.360000000    -1.334000000    -0.313000000
H     0.518000000    -2.380000000    -0.562000000
C    -0.893000000    -0.796000000     0.060000000
H    -1.733000000    -1.445000000     0.003000000
C    -1.095000000     0.537000000     0.334000000
H    -2.073000000     0.949000000     0.569000000
C    -0.017000000     1.388000000     0.262000000
H    -0.247000000     2.433000000     0.457000000
C     1.283000000     0.916000000     0.072000000
C     2.415000000     1.944000000    -0.079000000
O     3.591000000     1.579000000     0.041000000
O     2.085000000     3.010000000    -0.618000000
