14
-82.33231
C     0.558000000     1.022000000    -0.963000000
H     1.199000000     1.580000000    -1.641000000
C     0.249000000    -0.300000000    -1.284000000
H     0.540000000    -0.675000000    -2.262000000
C    -0.422000000    -1.068000000    -0.335000000
H    -0.771000000    -1.971000000    -0.546000000
C    -0.840000000    -0.571000000     0.869000000
H    -1.272000000    -1.190000000     1.652000000
C    -0.501000000     0.719000000     1.217000000
H    -0.726000000     1.038000000     2.231000000
C     0.302000000     1.473000000     0.329000000
C     0.955000000     2.713000000     0.791000000
O     1.793000000     3.265000000     0.092000000
O     0.727000000     3.087000000     1.909000000
