14
-82.44320
C     1.290000000     0.641000000     0.207000000
H     2.333000000     0.947000000     0.196000000
C     0.954000000    -0.226000000    -0.808000000
H     1.670000000    -0.583000000    -1.544000000
C    -0.283000000    -0.849000000    -0.842000000
H    -0.498000000    -1.592000000    -1.595000000
C    -1.215000000    -0.489000000     0.130000000
H    -2.183000000    -0.973000000     0.028000000
C    -0.926000000     0.567000000     0.978000000
H    -1.722000000     0.836000000     1.667000000
C     0.319000000     1.209000000     1.022000000
C     0.708000000     2.216000000     2.113000000
O     1.773000000     2.751000000     2.148000000
O    -0.098000000     2.499000000     2.968000000
