14
-84.04394
C     1.411000000    -0.445000000     0.029000000
H     2.389000000    -0.904000000     0.147000000
C     0.298000000    -1.258000000    -0.196000000
H     0.506000000    -2.325000000    -0.186000000
C    -0.977000000    -0.752000000    -0.221000000
H    -1.870000000    -1.407000000    -0.256000000
C    -1.130000000     0.620000000     0.065000000
H    -2.131000000     1.038000000     0.136000000
C    -0.062000000     1.462000000     0.167000000
H    -0.195000000     2.500000000     0.461000000
C     1.230000000     0.941000000     0.170000000
C     2.370000000     1.832000000     0.592000000
O     3.514000000     1.412000000     0.460000000
O     2.174000000     3.046000000     0.561000000
