14
-77.50783
C     1.136000000    -0.475000000     0.834000000
H     1.935000000    -0.916000000     1.425000000
C     0.209000000    -1.235000000     0.150000000
H     0.370000000    -2.309000000     0.110000000
C    -0.784000000    -0.665000000    -0.636000000
H    -1.275000000    -1.132000000    -1.425000000
C    -0.933000000     0.716000000    -0.630000000
H    -1.665000000     1.000000000    -1.381000000
C    -0.054000000     1.555000000     0.095000000
H    -0.241000000     2.626000000     0.086000000
C     0.931000000     0.902000000     0.934000000
C     1.872000000     1.708000000     1.789000000
O     2.667000000     1.096000000     2.479000000
O     1.876000000     2.860000000     1.650000000
