14
-86.69929
C     1.046000000    -0.593000000     0.812000000
H     1.731000000    -1.185000000     1.414000000
C    -0.054000000    -1.277000000     0.296000000
H    -0.179000000    -2.329000000     0.540000000
C    -1.029000000    -0.548000000    -0.481000000
H    -1.935000000    -1.045000000    -0.845000000
C    -0.780000000     0.779000000    -0.739000000
H    -1.517000000     1.340000000    -1.308000000
C     0.423000000     1.387000000    -0.303000000
H     0.668000000     2.384000000    -0.660000000
C     1.289000000     0.740000000     0.536000000
C     2.502000000     1.403000000     1.211000000
O     3.240000000     0.750000000     1.934000000
O     2.660000000     2.564000000     1.112000000
