14
-78.40196
C     1.349000000     0.311000000     0.523000000
H     2.369000000     0.300000000     0.898000000
C     1.070000000    -0.581000000    -0.485000000
H     1.876000000    -1.188000000    -0.888000000
C    -0.198000000    -0.740000000    -0.991000000
H    -0.421000000    -1.370000000    -1.869000000
C    -1.238000000    -0.027000000    -0.336000000
H    -2.241000000    -0.082000000    -0.750000000
C    -0.979000000     0.772000000     0.836000000
H    -1.805000000     1.390000000     1.180000000
C     0.377000000     0.940000000     1.226000000
C     0.639000000     1.811000000     2.435000000
O     1.703000000     2.280000000     2.673000000
O    -0.320000000     2.153000000     3.043000000
