14
-80.24942
C     1.415000000    -0.322000000     0.499000000
H     2.437000000    -0.572000000     0.773000000
C     0.521000000    -1.199000000     0.000000000
H     0.862000000    -2.224000000    -0.114000000
C    -0.781000000    -0.857000000    -0.323000000
H    -1.478000000    -1.686000000    -0.600000000
C    -1.197000000     0.464000000    -0.217000000
H    -2.246000000     0.635000000    -0.446000000
C    -0.296000000     1.475000000     0.265000000
H    -0.546000000     2.512000000     0.474000000
C     1.004000000     1.023000000     0.595000000
C     2.057000000     2.146000000     0.922000000
O     3.134000000     1.818000000     1.377000000
O     1.838000000     3.277000000     0.753000000
