14
-82.53869
C    -0.758000000    -1.261000000     0.271000000
H    -1.422000000    -2.111000000     0.399000000
C    -1.253000000    -0.036000000    -0.228000000
H    -2.284000000     0.027000000    -0.565000000
C    -0.482000000     1.082000000    -0.398000000
H    -0.943000000     2.014000000    -0.773000000
C     0.864000000     0.948000000    -0.034000000
H     1.496000000     1.832000000    -0.046000000
C     1.343000000    -0.185000000     0.494000000
H     2.345000000    -0.152000000     0.915000000
C     0.590000000    -1.315000000     0.601000000
C     1.105000000    -2.610000000     1.056000000
O     2.203000000    -2.782000000     1.558000000
O     0.440000000    -3.638000000     0.905000000
