14
-79.97353
C    -0.597000000    -0.861000000     0.954000000
H    -1.056000000    -1.635000000     1.563000000
C     0.292000000    -1.240000000    -0.012000000
H     0.600000000    -2.274000000    -0.142000000
C     0.857000000    -0.287000000    -0.836000000
H     1.649000000    -0.577000000    -1.532000000
C     0.466000000     1.010000000    -0.670000000
H     0.840000000     1.793000000    -1.325000000
C    -0.343000000     1.405000000     0.319000000
H    -0.647000000     2.445000000     0.409000000
C    -0.940000000     0.476000000     1.153000000
C    -2.144000000     0.765000000     2.086000000
O    -2.527000000    -0.203000000     2.732000000
O    -2.464000000     1.858000000     2.502000000
