14
-80.10639
C    -0.432000000    -1.072000000     0.932000000
H    -0.681000000    -1.882000000     1.613000000
C     0.227000000    -1.260000000    -0.292000000
H     0.597000000    -2.210000000    -0.669000000
C     0.602000000    -0.126000000    -1.059000000
H     1.226000000    -0.320000000    -1.927000000
C     0.268000000     1.140000000    -0.563000000
H     0.594000000     2.005000000    -1.134000000
C    -0.246000000     1.316000000     0.660000000
H    -0.471000000     2.342000000     0.940000000
C    -0.643000000     0.208000000     1.456000000
C    -1.429000000     0.407000000     2.682000000
O    -1.900000000    -0.547000000     3.254000000
O    -1.856000000     1.496000000     2.969000000
