14
-86.37975
C    -0.983000000    -1.078000000     0.203000000
H    -1.624000000    -1.947000000     0.327000000
C     0.147000000    -1.209000000    -0.600000000
H     0.479000000    -2.101000000    -1.126000000
C     1.025000000    -0.116000000    -0.644000000
H     2.023000000    -0.172000000    -1.123000000
C     0.617000000     1.134000000    -0.192000000
H     1.252000000     1.974000000    -0.459000000
C    -0.494000000     1.249000000     0.615000000
H    -0.750000000     2.211000000     1.051000000
C    -1.323000000     0.145000000     0.832000000
C    -2.560000000     0.317000000     1.674000000
O    -3.261000000    -0.642000000     1.929000000
O    -2.764000000     1.340000000     2.281000000
