14
-89.51060
C    -1.035000000    -1.019000000     0.152000000
H    -1.766000000    -1.823000000     0.128000000
C    -1.136000000     0.085000000    -0.691000000
H    -1.992000000     0.322000000    -1.318000000
C    -0.092000000     1.026000000    -0.723000000
H    -0.169000000     1.945000000    -1.401000000
C     1.002000000     0.817000000     0.128000000
H     1.806000000     1.546000000     0.192000000
C     1.068000000    -0.300000000     0.968000000
H     1.915000000    -0.390000000     1.643000000
C     0.136000000    -1.278000000     0.913000000
C     0.228000000    -2.473000000     1.766000000
O     1.239000000    -2.685000000     2.436000000
O    -0.641000000    -3.339000000     1.688000000
