14
-89.83356
C    -0.544000000    -1.275000000     0.464000000
H    -0.997000000    -2.255000000     0.594000000
C    -0.227000000    -0.920000000    -0.853000000
H    -0.477000000    -1.561000000    -1.694000000
C     0.349000000     0.293000000    -1.118000000
H     0.603000000     0.528000000    -2.156000000
C     0.698000000     1.185000000    -0.107000000
H     1.283000000     2.048000000    -0.415000000
C     0.315000000     0.912000000     1.186000000
H     0.530000000     1.581000000     2.015000000
C    -0.369000000    -0.336000000     1.509000000
C    -0.970000000    -0.692000000     2.865000000
O    -1.844000000    -1.563000000     2.971000000
O    -0.666000000    -0.021000000     3.829000000
