14
-88.67578
C    -0.452000000    -1.158000000     0.817000000
H    -0.624000000    -2.130000000     1.272000000
C     0.325000000    -1.209000000    -0.357000000
H     0.699000000    -2.178000000    -0.679000000
C     0.648000000    -0.062000000    -1.059000000
H     1.217000000    -0.112000000    -1.980000000
C     0.193000000     1.223000000    -0.557000000
H     0.492000000     2.101000000    -1.124000000
C    -0.493000000     1.288000000     0.634000000
H    -0.771000000     2.228000000     1.104000000
C    -0.887000000     0.059000000     1.300000000
C    -1.591000000     0.115000000     2.607000000
O    -1.881000000    -0.935000000     3.121000000
O    -1.872000000     1.157000000     3.187000000
