14
-87.02379
C    -0.696000000    -1.394000000     0.021000000
H    -0.993000000    -2.439000000    -0.014000000
C     0.350000000    -1.009000000    -0.859000000
H     0.771000000    -1.737000000    -1.548000000
C     0.876000000     0.303000000    -0.802000000
H     1.695000000     0.611000000    -1.557000000
C     0.317000000     1.257000000     0.051000000
H     0.559000000     2.317000000     0.030000000
C    -0.656000000     0.811000000     0.927000000
H    -1.138000000     1.604000000     1.493000000
C    -1.133000000    -0.483000000     0.962000000
C    -2.159000000    -0.814000000     2.000000000
O    -2.777000000    -1.864000000     1.923000000
O    -2.444000000    -0.035000000     2.885000000
