14
-77.31727
C    -0.600000000    -1.357000000     0.430000000
H    -0.869000000    -2.362000000     0.747000000
C     0.226000000    -1.141000000    -0.678000000
H     0.416000000    -1.930000000    -1.401000000
C     0.774000000     0.135000000    -0.907000000
H     1.436000000     0.337000000    -1.792000000
C     0.415000000     1.272000000    -0.083000000
H     0.676000000     2.298000000    -0.329000000
C    -0.433000000     1.038000000     0.909000000
H    -0.773000000     1.879000000     1.509000000
C    -0.869000000    -0.250000000     1.275000000
C    -1.672000000    -0.352000000     2.509000000
O    -1.971000000    -1.437000000     2.931000000
O    -1.897000000     0.586000000     3.205000000
