14
-89.28100
C    -0.132000000    -1.420000000     0.462000000
H    -0.251000000    -2.482000000     0.660000000
C     0.817000000    -0.985000000    -0.553000000
H     1.307000000    -1.712000000    -1.196000000
C     0.836000000     0.348000000    -0.828000000
H     1.556000000     0.640000000    -1.613000000
C     0.019000000     1.277000000    -0.205000000
H     0.180000000     2.336000000    -0.390000000
C    -0.877000000     0.828000000     0.761000000
H    -1.548000000     1.589000000     1.151000000
C    -0.982000000    -0.522000000     1.127000000
C    -1.993000000    -0.906000000     2.193000000
O    -2.202000000    -2.073000000     2.503000000
O    -2.635000000    -0.019000000     2.769000000
