14
-86.77090
C    -1.009000000    -1.063000000     0.329000000
H    -1.772000000    -1.834000000     0.406000000
C    -1.298000000     0.231000000     0.032000000
H    -2.338000000     0.547000000    -0.005000000
C    -0.322000000     1.164000000    -0.287000000
H    -0.648000000     2.165000000    -0.571000000
C     1.001000000     0.772000000    -0.300000000
H     1.855000000     1.368000000    -0.610000000
C     1.318000000    -0.547000000     0.019000000
H     2.356000000    -0.782000000     0.238000000
C     0.348000000    -1.473000000     0.426000000
C     0.779000000    -2.812000000     0.896000000
O     1.944000000    -3.273000000     0.824000000
O    -0.038000000    -3.479000000     1.511000000
