14
-87.42558
C    -0.037000000    -1.380000000     0.523000000
H    -0.042000000    -2.466000000     0.579000000
C     0.757000000    -0.924000000    -0.514000000
H     1.372000000    -1.598000000    -1.106000000
C     0.758000000     0.370000000    -0.894000000
H     1.251000000     0.635000000    -1.829000000
C    -0.047000000     1.318000000    -0.187000000
H    -0.054000000     2.365000000    -0.481000000
C    -0.794000000     0.882000000     0.878000000
H    -1.380000000     1.516000000     1.538000000
C    -0.804000000    -0.443000000     1.256000000
C    -1.728000000    -0.917000000     2.347000000
O    -1.783000000    -2.146000000     2.526000000
O    -2.263000000    -0.147000000     3.102000000
