14
-82.37065
C     1.428000000    -0.142000000     0.381000000
H     2.490000000    -0.213000000     0.598000000
C     0.862000000     1.015000000    -0.018000000
H     1.408000000     1.953000000     0.045000000
C    -0.448000000     1.049000000    -0.431000000
H    -0.797000000     1.994000000    -0.639000000
C    -1.119000000    -0.132000000    -0.442000000
H    -2.169000000    -0.122000000    -0.721000000
C    -0.626000000    -1.268000000     0.064000000
H    -1.173000000    -2.207000000     0.092000000
C     0.653000000    -1.315000000     0.506000000
C     1.196000000    -2.591000000     1.118000000
O     2.390000000    -2.703000000     1.315000000
O     0.402000000    -3.417000000     1.617000000
