14
-88.91934
C     1.362000000    -0.277000000    -0.569000000
H     2.355000000    -0.406000000    -0.992000000
C     0.516000000     0.862000000    -0.817000000
H     0.866000000     1.634000000    -1.497000000
C    -0.800000000     0.908000000    -0.333000000
H    -1.439000000     1.776000000    -0.627000000
C    -1.224000000    -0.037000000     0.556000000
H    -2.220000000     0.134000000     0.956000000
C    -0.395000000    -1.162000000     0.896000000
H    -0.850000000    -1.924000000     1.524000000
C     0.915000000    -1.234000000     0.352000000
C     1.829000000    -2.372000000     0.815000000
O     2.950000000    -2.551000000     0.326000000
O     1.531000000    -3.040000000     1.821000000
