14
-79.22917
C     1.238000000     0.211000000    -0.742000000
H     2.035000000     0.538000000    -1.405000000
C     0.505000000     1.192000000    -0.203000000
H     0.645000000     2.229000000    -0.497000000
C    -0.587000000     0.846000000     0.587000000
H    -1.322000000     1.565000000     1.036000000
C    -0.879000000    -0.447000000     0.848000000
H    -1.748000000    -0.610000000     1.481000000
C    -0.048000000    -1.494000000     0.364000000
H    -0.270000000    -2.517000000     0.657000000
C     0.932000000    -1.144000000    -0.574000000
C     1.587000000    -2.230000000    -1.327000000
O     2.512000000    -2.028000000    -2.110000000
O     1.259000000    -3.368000000    -1.181000000
