14
-81.32008
C     1.338000000     0.280000000    -0.642000000
H     2.335000000     0.526000000    -1.000000000
C     0.387000000     1.294000000    -0.296000000
H     0.502000000     2.356000000    -0.498000000
C    -0.834000000     0.847000000     0.198000000
H    -1.629000000     1.605000000     0.456000000
C    -1.091000000    -0.503000000     0.414000000
H    -2.121000000    -0.762000000     0.643000000
C    -0.080000000    -1.459000000     0.185000000
H    -0.281000000    -2.518000000     0.325000000
C     1.162000000    -1.041000000    -0.271000000
C     2.251000000    -2.051000000    -0.334000000
O     3.256000000    -1.806000000    -1.003000000
O     2.315000000    -2.821000000     0.567000000
