14
-82.05407
C     1.396000000     0.588000000    -0.022000000
H     2.346000000     1.101000000    -0.149000000
C     0.290000000     1.124000000    -0.721000000
H     0.421000000     1.936000000    -1.432000000
C    -0.944000000     0.540000000    -0.578000000
H    -1.726000000     0.747000000    -1.200000000
C    -1.147000000    -0.517000000     0.299000000
H    -2.105000000    -0.982000000     0.516000000
C    -0.016000000    -1.083000000     0.858000000
H    -0.112000000    -1.948000000     1.510000000
C     1.260000000    -0.492000000     0.800000000
C     2.407000000    -1.113000000     1.606000000
O     3.429000000    -0.510000000     1.566000000
O     2.379000000    -2.292000000     1.909000000
