14
-88.58193
C     0.115000000     1.176000000     0.822000000
H     0.106000000     2.161000000     1.282000000
C     0.211000000     1.175000000    -0.590000000
H     0.273000000     2.066000000    -1.209000000
C     0.085000000    -0.064000000    -1.240000000
H     0.220000000    -0.154000000    -2.320000000
C    -0.109000000    -1.264000000    -0.524000000
H    -0.176000000    -2.185000000    -1.098000000
C    -0.028000000    -1.244000000     0.916000000
H    -0.046000000    -2.142000000     1.529000000
C    -0.093000000     0.002000000     1.567000000
C    -0.318000000     0.095000000     3.072000000
O    -0.273000000     1.251000000     3.513000000
O    -0.413000000    -0.839000000     3.835000000
