14
-83.11100
C    -0.448000000     1.274000000     0.559000000
H    -0.913000000     2.217000000     0.835000000
C     0.060000000     1.135000000    -0.695000000
H     0.192000000     1.936000000    -1.418000000
C     0.474000000    -0.121000000    -1.073000000
H     0.896000000    -0.120000000    -2.063000000
C     0.303000000    -1.244000000    -0.275000000
H     0.713000000    -2.179000000    -0.648000000
C    -0.216000000    -1.099000000     0.952000000
H    -0.458000000    -1.962000000     1.568000000
C    -0.542000000     0.153000000     1.442000000
C    -1.090000000     0.386000000     2.765000000
O    -1.886000000     1.292000000     2.991000000
O    -0.963000000    -0.523000000     3.647000000
