14
-87.62102
C    -0.590000000    -0.610000000     1.314000000
H    -1.120000000    -0.941000000     2.204000000
C    -0.220000000     0.747000000     1.153000000
H    -0.446000000     1.498000000     1.906000000
C     0.270000000     1.183000000    -0.078000000
H     0.497000000     2.212000000    -0.132000000
C     0.583000000     0.291000000    -1.138000000
H     0.863000000     0.643000000    -2.127000000
C     0.305000000    -1.021000000    -0.994000000
H     0.487000000    -1.726000000    -1.802000000
C    -0.261000000    -1.480000000     0.226000000
C    -0.637000000    -2.974000000     0.308000000
O    -0.774000000    -3.482000000     1.403000000
O    -0.736000000    -3.679000000    -0.684000000
