14
-88.88550
C     0.138000000    -0.785000000     1.256000000
H     0.204000000    -1.228000000     2.246000000
C    -0.221000000     0.549000000     1.185000000
H    -0.336000000     1.098000000     2.116000000
C    -0.248000000     1.195000000    -0.063000000
H    -0.521000000     2.275000000    -0.132000000
C     0.031000000     0.470000000    -1.189000000
H    -0.140000000     0.947000000    -2.151000000
C     0.412000000    -0.854000000    -1.135000000
H     0.601000000    -1.370000000    -2.073000000
C     0.393000000    -1.554000000     0.068000000
C     0.563000000    -3.040000000     0.099000000
O     0.491000000    -3.620000000     1.174000000
O     0.576000000    -3.745000000    -0.923000000
