14
-80.97053
C    -0.274000000    -1.465000000    -0.253000000
H    -0.538000000    -2.498000000    -0.467000000
C    -1.271000000    -0.558000000    -0.032000000
H    -2.254000000    -0.998000000     0.113000000
C    -0.931000000     0.788000000     0.103000000
H    -1.642000000     1.513000000     0.350000000
C     0.376000000     1.214000000    -0.016000000
H     0.654000000     2.263000000     0.034000000
C     1.415000000     0.326000000    -0.365000000
H     2.422000000     0.731000000    -0.295000000
C     1.070000000    -1.081000000    -0.393000000
C     2.242000000    -2.026000000    -0.389000000
O     3.376000000    -1.655000000    -0.230000000
O     2.081000000    -3.204000000    -0.658000000
