14
-90.71078
C    -0.266000000    -1.360000000     0.555000000
H    -0.505000000    -2.244000000     1.140000000
C     0.387000000    -0.326000000     1.229000000
H     0.604000000    -0.390000000     2.292000000
C     0.662000000     0.856000000     0.543000000
H     1.231000000     1.600000000     1.094000000
C     0.206000000     1.044000000    -0.745000000
H     0.443000000     2.004000000    -1.196000000
C    -0.512000000     0.026000000    -1.430000000
H    -0.938000000     0.188000000    -2.416000000
C    -0.732000000    -1.195000000    -0.763000000
C    -1.607000000    -2.237000000    -1.385000000
O    -2.008000000    -3.231000000    -0.841000000
O    -1.988000000    -1.956000000    -2.527000000
