14
-86.77891
C     0.275000000    -0.764000000     1.204000000
H     0.427000000    -1.248000000     2.165000000
C    -0.378000000     0.468000000     1.220000000
H    -0.722000000     0.862000000     2.173000000
C    -0.690000000     1.054000000    -0.011000000
H    -1.316000000     2.012000000    -0.155000000
C    -0.238000000     0.446000000    -1.215000000
H    -0.533000000     0.827000000    -2.190000000
C     0.464000000    -0.765000000    -1.196000000
H     0.828000000    -1.322000000    -2.055000000
C     0.734000000    -1.388000000     0.032000000
C     1.545000000    -2.626000000     0.149000000
O     2.238000000    -2.755000000     1.117000000
O     1.588000000    -3.448000000    -0.745000000
