14
-81.78640
C    -0.285000000    -0.994000000     1.052000000
H    -0.682000000    -1.613000000     1.852000000
C    -0.294000000     0.377000000     1.249000000
H    -0.670000000     0.742000000     2.202000000
C    -0.023000000     1.166000000     0.208000000
H    -0.143000000     2.295000000     0.293000000
C     0.346000000     0.646000000    -1.073000000
H     0.440000000     1.273000000    -1.956000000
C     0.446000000    -0.730000000    -1.318000000
H     0.836000000    -1.010000000    -2.294000000
C     0.112000000    -1.545000000    -0.206000000
C     0.195000000    -3.015000000    -0.307000000
O     0.194000000    -3.683000000     0.729000000
O     0.600000000    -3.481000000    -1.356000000
