14
-85.90327
C     0.076000000    -1.305000000     0.692000000
H    -0.110000000    -2.183000000     1.305000000
C    -0.723000000    -0.191000000     0.963000000
H    -1.398000000    -0.134000000     1.813000000
C    -0.735000000     0.956000000     0.222000000
H    -1.401000000     1.723000000     0.453000000
C     0.270000000     1.080000000    -0.701000000
H     0.347000000     2.035000000    -1.216000000
C     1.116000000     0.002000000    -1.035000000
H     1.828000000     0.151000000    -1.844000000
C     0.971000000    -1.271000000    -0.389000000
C     1.809000000    -2.403000000    -0.800000000
O     2.029000000    -3.256000000     0.018000000
O     2.180000000    -2.488000000    -1.970000000
