14
-86.23362
C     0.803000000    -0.370000000     1.124000000
H     1.559000000    -0.574000000     1.878000000
C     0.881000000     0.839000000     0.484000000
H     1.637000000     1.603000000     0.646000000
C     0.003000000     1.134000000    -0.480000000
H    -0.017000000     2.085000000    -1.041000000
C    -0.927000000     0.122000000    -0.911000000
H    -1.556000000     0.233000000    -1.790000000
C    -1.074000000    -1.018000000    -0.176000000
H    -1.797000000    -1.761000000    -0.504000000
C    -0.128000000    -1.383000000     0.818000000
C    -0.177000000    -2.677000000     1.583000000
O     0.707000000    -2.957000000     2.426000000
O    -0.968000000    -3.541000000     1.226000000
