14
-83.07883
C     0.806000000    -0.552000000     1.082000000
H     1.495000000    -0.792000000     1.887000000
C     1.209000000     0.329000000     0.092000000
H     2.218000000     0.733000000     0.121000000
C     0.405000000     0.636000000    -0.978000000
H     0.837000000     1.254000000    -1.712000000
C    -0.873000000     0.081000000    -1.047000000
H    -1.544000000     0.271000000    -1.880000000
C    -1.328000000    -0.688000000     0.047000000
H    -2.374000000    -0.984000000     0.028000000
C    -0.505000000    -1.050000000     1.101000000
C    -1.060000000    -1.627000000     2.433000000
O    -0.408000000    -1.565000000     3.464000000
O    -2.166000000    -1.998000000     2.488000000
