14
-84.30649
C     0.041000000    -0.624000000     1.359000000
H     0.177000000    -1.051000000     2.350000000
C     0.849000000     0.427000000     0.909000000
H     1.648000000     0.736000000     1.578000000
C     0.711000000     0.919000000    -0.377000000
H     1.360000000     1.732000000    -0.766000000
C    -0.384000000     0.496000000    -1.129000000
H    -0.520000000     0.954000000    -2.106000000
C    -1.216000000    -0.514000000    -0.704000000
H    -1.953000000    -0.873000000    -1.418000000
C    -0.906000000    -1.164000000     0.455000000
C    -1.604000000    -2.441000000     0.814000000
O    -1.622000000    -2.856000000     1.969000000
O    -2.366000000    -3.022000000     0.056000000
