14
-82.80632
C    -0.777000000     0.582000000     1.153000000
H    -1.274000000     0.898000000     2.066000000
C     0.556000000     1.008000000     0.749000000
H     1.255000000     1.631000000     1.301000000
C     1.142000000     0.356000000    -0.371000000
H     2.131000000     0.668000000    -0.690000000
C     0.446000000    -0.560000000    -1.118000000
H     0.962000000    -1.077000000    -1.922000000
C    -0.908000000    -0.872000000    -0.815000000
H    -1.429000000    -1.649000000    -1.368000000
C    -1.520000000    -0.371000000     0.317000000
C    -2.982000000    -0.752000000     0.761000000
O    -3.491000000    -0.369000000     1.790000000
O    -3.656000000    -1.495000000     0.056000000
