14
-86.20270
C     0.660000000     0.357000000     1.248000000
H     1.206000000     0.636000000     2.145000000
C     0.765000000     1.116000000     0.058000000
H     1.294000000     2.058000000     0.180000000
C     0.016000000     0.701000000    -1.012000000
H     0.005000000     1.344000000    -1.852000000
C    -0.603000000    -0.571000000    -1.090000000
H    -1.019000000    -0.914000000    -2.033000000
C    -0.641000000    -1.348000000     0.083000000
H    -1.104000000    -2.332000000     0.083000000
C    -0.024000000    -0.885000000     1.283000000
C    -0.109000000    -1.704000000     2.570000000
O     0.799000000    -1.710000000     3.389000000
O    -1.046000000    -2.413000000     2.734000000
