14
-82.67880
C     0.679000000    -1.088000000     0.814000000
H     1.263000000    -1.643000000     1.543000000
C     1.270000000     0.068000000     0.302000000
H     2.293000000     0.275000000     0.605000000
C     0.552000000     0.892000000    -0.573000000
H     1.152000000     1.655000000    -1.034000000
C    -0.698000000     0.589000000    -0.958000000
H    -1.193000000     1.183000000    -1.721000000
C    -1.363000000    -0.516000000    -0.359000000
H    -2.427000000    -0.592000000    -0.572000000
C    -0.702000000    -1.245000000     0.654000000
C    -1.433000000    -2.217000000     1.497000000
O    -0.800000000    -3.107000000     1.999000000
O    -2.622000000    -2.123000000     1.642000000
