14
-91.07476
C    -1.012000000    -0.273000000     0.987000000
H    -1.715000000    -0.496000000     1.785000000
C     0.130000000     0.417000000     1.259000000
H     0.342000000     0.856000000     2.231000000
C     1.030000000     0.656000000     0.242000000
H     1.910000000     1.233000000     0.475000000
C     0.758000000     0.237000000    -1.095000000
H     1.469000000     0.427000000    -1.895000000
C    -0.369000000    -0.594000000    -1.268000000
H    -0.631000000    -1.051000000    -2.218000000
C    -1.220000000    -0.917000000    -0.217000000
C    -2.466000000    -1.809000000    -0.453000000
O    -3.214000000    -2.118000000     0.470000000
O    -2.688000000    -2.222000000    -1.584000000
