14
-88.28788
C    -0.082000000     0.079000000     1.469000000
H    -0.173000000     0.253000000     2.539000000
C     0.643000000     0.957000000     0.725000000
H     1.213000000     1.741000000     1.216000000
C     0.781000000     0.711000000    -0.653000000
H     1.538000000     1.309000000    -1.240000000
C     0.029000000    -0.326000000    -1.248000000
H    -0.053000000    -0.465000000    -2.323000000
C    -0.673000000    -1.192000000    -0.467000000
H    -1.258000000    -1.957000000    -0.970000000
C    -0.786000000    -1.021000000     0.924000000
C    -1.673000000    -1.947000000     1.682000000
O    -1.969000000    -1.624000000     2.791000000
O    -2.051000000    -2.892000000     1.002000000
