14
-90.05735
C    -0.183000000     0.153000000     1.469000000
H    -0.210000000     0.296000000     2.546000000
C     0.850000000     0.702000000     0.719000000
H     1.668000000     1.275000000     1.148000000
C     0.933000000     0.467000000    -0.638000000
H     1.802000000     0.813000000    -1.284000000
C    -0.076000000    -0.228000000    -1.302000000
H     0.058000000    -0.323000000    -2.377000000
C    -1.144000000    -0.793000000    -0.590000000
H    -1.945000000    -1.406000000    -0.996000000
C    -1.142000000    -0.653000000     0.827000000
C    -2.157000000    -1.384000000     1.685000000
O    -2.334000000    -1.078000000     2.871000000
O    -3.032000000    -2.100000000     1.150000000
