14
-85.94055
C     0.252000000    -0.210000000     1.392000000
H     0.557000000    -0.213000000     2.435000000
C     1.115000000     0.339000000     0.505000000
H     2.109000000     0.652000000     0.817000000
C     0.800000000     0.516000000    -0.818000000
H     1.538000000     1.020000000    -1.455000000
C    -0.507000000     0.023000000    -1.274000000
H    -0.823000000     0.095000000    -2.312000000
C    -1.364000000    -0.579000000    -0.345000000
H    -2.366000000    -0.850000000    -0.670000000
C    -1.053000000    -0.616000000     1.023000000
C    -2.025000000    -1.136000000     2.046000000
O    -1.873000000    -1.104000000     3.245000000
O    -3.043000000    -1.666000000     1.601000000
