14
-80.41141
C    -0.226000000     0.242000000     1.441000000
H    -0.460000000     0.700000000     2.399000000
C     0.765000000     0.865000000     0.688000000
H     1.261000000     1.755000000     1.068000000
C     0.965000000     0.522000000    -0.634000000
H     1.769000000     0.977000000    -1.201000000
C     0.134000000    -0.476000000    -1.177000000
H     0.156000000    -0.682000000    -2.244000000
C    -0.874000000    -1.077000000    -0.467000000
H    -1.476000000    -1.869000000    -0.905000000
C    -1.014000000    -0.785000000     0.911000000
C    -2.185000000    -1.464000000     1.622000000
O    -2.450000000    -1.263000000     2.807000000
O    -2.823000000    -2.342000000     1.138000000
