14
-86.51605
C    -0.753000000     0.157000000     1.249000000
H    -1.066000000     0.327000000     2.276000000
C     0.467000000     0.750000000     0.918000000
H     0.953000000     1.440000000     1.603000000
C     1.091000000     0.536000000    -0.296000000
H     2.073000000     1.041000000    -0.437000000
C     0.504000000    -0.391000000    -1.187000000
H     0.955000000    -0.559000000    -2.162000000
C    -0.761000000    -0.917000000    -0.881000000
H    -1.145000000    -1.682000000    -1.551000000
C    -1.397000000    -0.670000000     0.354000000
C    -2.797000000    -1.237000000     0.713000000
O    -3.189000000    -1.175000000     1.852000000
O    -3.327000000    -2.000000000    -0.064000000
