14
-83.56223
C     0.248000000    -1.217000000     0.870000000
H     0.477000000    -2.055000000     1.524000000
C    -0.414000000    -0.065000000     1.261000000
H    -0.812000000    -0.002000000     2.271000000
C    -0.659000000     0.989000000     0.394000000
H    -1.357000000     1.856000000     0.666000000
C    -0.177000000     0.878000000    -0.934000000
H    -0.484000000     1.579000000    -1.706000000
C     0.664000000    -0.215000000    -1.299000000
H     1.145000000    -0.288000000    -2.271000000
C     0.849000000    -1.263000000    -0.404000000
C     1.607000000    -2.450000000    -0.843000000
O     2.038000000    -2.527000000    -1.951000000
O     1.633000000    -3.440000000    -0.148000000
