14
-89.01913
C    -0.981000000    -0.573000000     1.004000000
H    -1.502000000    -1.062000000     1.823000000
C    -0.071000000     0.512000000     1.312000000
H     0.026000000     0.938000000     2.307000000
C     0.676000000     1.039000000     0.255000000
H     1.338000000     1.868000000     0.313000000
C     0.552000000     0.503000000    -1.034000000
H     1.020000000     0.918000000    -1.923000000
C    -0.276000000    -0.580000000    -1.273000000
H    -0.332000000    -0.985000000    -2.281000000
C    -1.047000000    -1.184000000    -0.257000000
C    -1.850000000    -2.435000000    -0.445000000
O    -2.645000000    -2.798000000     0.404000000
O    -1.522000000    -3.208000000    -1.340000000
