14
-87.92288
C    -1.021000000    -0.176000000     1.004000000
H    -1.637000000    -0.355000000     1.881000000
C    -0.079000000     0.882000000     1.015000000
H    -0.106000000     1.577000000     1.850000000
C     0.817000000     0.948000000    -0.057000000
H     1.530000000     1.703000000    -0.070000000
C     0.698000000     0.041000000    -1.096000000
H     1.401000000     0.133000000    -1.919000000
C    -0.210000000    -1.013000000    -1.072000000
H    -0.238000000    -1.721000000    -1.897000000
C    -1.067000000    -1.133000000    -0.013000000
C    -2.056000000    -2.305000000    -0.014000000
O    -2.656000000    -2.593000000     1.000000000
O    -2.062000000    -3.151000000    -0.913000000
