14
-85.30613
C     0.000000000     0.037000000     1.483000000
H    -0.074000000     0.215000000     2.552000000
C     0.609000000     0.942000000     0.643000000
H     1.041000000     1.847000000     1.061000000
C     0.617000000     0.800000000    -0.716000000
H     1.187000000     1.493000000    -1.282000000
C     0.010000000    -0.348000000    -1.292000000
H     0.108000000    -0.396000000    -2.374000000
C    -0.636000000    -1.278000000    -0.382000000
H    -1.137000000    -2.140000000    -0.815000000
C    -0.618000000    -1.110000000     0.981000000
C    -1.392000000    -2.114000000     1.850000000
O    -1.401000000    -1.886000000     3.033000000
O    -2.140000000    -2.874000000     1.320000000
