14
-88.91527
C    -0.450000000     0.431000000     1.376000000
H    -0.820000000     0.832000000     2.316000000
C     0.612000000     1.002000000     0.633000000
H     1.162000000     1.804000000     1.119000000
C     0.936000000     0.474000000    -0.582000000
H     1.784000000     0.939000000    -1.146000000
C     0.326000000    -0.661000000    -1.111000000
H     0.690000000    -1.214000000    -1.973000000
C    -0.760000000    -1.158000000    -0.424000000
H    -1.318000000    -1.963000000    -0.896000000
C    -1.239000000    -0.566000000     0.762000000
C    -2.530000000    -1.049000000     1.334000000
O    -2.972000000    -0.468000000     2.305000000
O    -3.020000000    -2.017000000     0.835000000
