14
-86.09106
C    -1.370000000    -0.493000000    -0.212000000
H    -2.364000000    -0.929000000    -0.283000000
C    -0.800000000    -0.282000000     0.985000000
H    -1.290000000    -0.613000000     1.897000000
C     0.514000000     0.195000000     1.098000000
H     0.975000000     0.330000000     2.059000000
C     1.292000000     0.370000000    -0.084000000
H     2.272000000     0.822000000     0.041000000
C     0.699000000     0.188000000    -1.369000000
H     1.275000000     0.413000000    -2.263000000
C    -0.645000000    -0.211000000    -1.412000000
C    -1.262000000    -0.554000000    -2.763000000
O    -2.447000000    -0.566000000    -2.924000000
O    -0.539000000    -0.807000000    -3.707000000
