14
-81.74313
C    -0.972000000    -0.970000000     0.646000000
H    -1.768000000    -1.458000000     1.203000000
C    -0.195000000    -0.018000000     1.299000000
H    -0.281000000     0.243000000     2.351000000
C     0.741000000     0.776000000     0.595000000
H     1.400000000     1.531000000     1.088000000
C     0.991000000     0.516000000    -0.716000000
H     1.731000000     1.111000000    -1.245000000
C     0.167000000    -0.421000000    -1.440000000
H     0.443000000    -0.663000000    -2.463000000
C    -0.833000000    -1.204000000    -0.785000000
C    -1.680000000    -2.113000000    -1.534000000
O    -2.551000000    -2.822000000    -1.003000000
O    -1.604000000    -2.169000000    -2.728000000
