14
-88.88731
C    -0.819000000    -0.783000000     0.924000000
H    -1.259000000    -1.411000000     1.695000000
C     0.210000000     0.092000000     1.322000000
H     0.454000000     0.170000000     2.378000000
C     0.869000000     0.826000000     0.369000000
H     1.543000000     1.585000000     0.671000000
C     0.440000000     0.776000000    -0.950000000
H     0.968000000     1.363000000    -1.697000000
C    -0.563000000    -0.153000000    -1.349000000
H    -0.794000000    -0.149000000    -2.411000000
C    -1.167000000    -0.964000000    -0.390000000
C    -2.259000000    -1.911000000    -0.829000000
O    -3.040000000    -2.331000000    -0.012000000
O    -2.360000000    -2.276000000    -1.989000000
