14
-86.57012
C    -0.683000000    -1.011000000     0.798000000
H    -1.254000000    -1.768000000     1.330000000
C    -0.219000000     0.191000000     1.261000000
H    -0.322000000     0.329000000     2.334000000
C     0.425000000     1.079000000     0.388000000
H     0.875000000     2.051000000     0.760000000
C     0.559000000     0.795000000    -0.947000000
H     1.109000000     1.469000000    -1.599000000
C     0.036000000    -0.414000000    -1.413000000
H     0.156000000    -0.600000000    -2.478000000
C    -0.488000000    -1.331000000    -0.504000000
C    -0.921000000    -2.687000000    -1.043000000
O    -1.275000000    -3.564000000    -0.205000000
O    -0.985000000    -2.992000000    -2.212000000
