14
-84.22127
C    -0.907000000    -0.912000000     0.848000000
H    -1.435000000    -1.599000000     1.504000000
C    -0.017000000     0.061000000     1.348000000
H     0.027000000     0.104000000     2.433000000
C     0.761000000     0.853000000     0.497000000
H     1.369000000     1.650000000     0.954000000
C     0.689000000     0.625000000    -0.832000000
H     1.303000000     1.291000000    -1.434000000
C    -0.140000000    -0.330000000    -1.394000000
H    -0.088000000    -0.457000000    -2.472000000
C    -1.020000000    -1.049000000    -0.553000000
C    -1.846000000    -2.163000000    -1.112000000
O    -2.595000000    -2.824000000    -0.438000000
O    -1.812000000    -2.451000000    -2.299000000
