14
-89.65542
C     1.449000000    -0.149000000    -0.458000000
H     2.498000000    -0.231000000    -0.732000000
C     0.985000000    -0.285000000     0.875000000
H     1.580000000    -0.508000000     1.758000000
C    -0.344000000    -0.268000000     1.142000000
H    -0.659000000    -0.538000000     2.140000000
C    -1.278000000    -0.042000000     0.132000000
H    -2.347000000    -0.051000000     0.325000000
C    -0.828000000     0.273000000    -1.143000000
H    -1.575000000     0.559000000    -1.879000000
C     0.504000000     0.155000000    -1.484000000
C     0.970000000     0.535000000    -2.833000000
O     1.990000000     1.226000000    -2.971000000
O     0.264000000     0.269000000    -3.813000000
