14
-85.92307
C     1.261000000    -0.549000000     0.496000000
H     2.182000000    -0.954000000     0.908000000
C     0.393000000     0.208000000     1.248000000
H     0.700000000     0.378000000     2.277000000
C    -0.809000000     0.622000000     0.679000000
H    -1.443000000     1.237000000     1.253000000
C    -1.124000000     0.311000000    -0.675000000
H    -2.118000000     0.522000000    -1.059000000
C    -0.226000000    -0.364000000    -1.429000000
H    -0.493000000    -0.596000000    -2.457000000
C     0.994000000    -0.768000000    -0.850000000
C     2.002000000    -1.610000000    -1.649000000
O     3.208000000    -1.786000000    -1.258000000
O     1.794000000    -1.772000000    -2.847000000
