14
-84.41305
C     0.206000000    -1.253000000     0.790000000
H     0.282000000    -2.145000000     1.406000000
C    -0.416000000    -0.094000000     1.210000000
H    -0.840000000    -0.063000000     2.210000000
C    -0.437000000     1.080000000     0.431000000
H    -0.800000000     2.016000000     0.843000000
C     0.048000000     1.048000000    -0.814000000
H    -0.088000000     1.873000000    -1.510000000
C     0.532000000    -0.166000000    -1.273000000
H     0.981000000    -0.086000000    -2.260000000
C     0.705000000    -1.315000000    -0.492000000
C     1.378000000    -2.566000000    -1.030000000
O     1.529000000    -3.567000000    -0.349000000
O     1.628000000    -2.670000000    -2.223000000
