14
-86.82033
C    -0.113000000    -1.197000000     0.853000000
H    -0.164000000    -2.024000000     1.557000000
C    -0.399000000     0.138000000     1.252000000
H    -0.566000000     0.288000000     2.315000000
C    -0.306000000     1.187000000     0.353000000
H    -0.621000000     2.111000000     0.649000000
C     0.084000000     0.899000000    -0.926000000
H     0.264000000     1.717000000    -1.618000000
C     0.242000000    -0.382000000    -1.434000000
H     0.533000000    -0.507000000    -2.474000000
C     0.135000000    -1.498000000    -0.554000000
C     0.316000000    -2.914000000    -1.053000000
O     0.400000000    -3.805000000    -0.224000000
O     0.538000000    -3.135000000    -2.225000000
