14
-74.22904
C     1.155000000    -0.979000000     0.026000000
H     2.051000000    -1.582000000     0.155000000
C     0.390000000    -0.490000000     1.108000000
H     0.608000000    -0.766000000     2.136000000
C    -0.677000000     0.318000000     0.992000000
H    -1.196000000     0.671000000     1.830000000
C    -1.098000000     0.717000000    -0.272000000
H    -2.027000000     1.268000000    -0.152000000
C    -0.335000000     0.353000000    -1.423000000
H    -0.540000000     0.766000000    -2.407000000
C     0.808000000    -0.546000000    -1.295000000
C     1.659000000    -0.825000000    -2.470000000
O     2.618000000    -1.514000000    -2.439000000
O     1.420000000    -0.321000000    -3.577000000
