14
-87.52641
C     0.917000000    -0.715000000     0.904000000
H     1.637000000    -0.980000000     1.674000000
C    -0.167000000     0.074000000     1.270000000
H    -0.358000000     0.281000000     2.320000000
C    -0.967000000     0.718000000     0.313000000
H    -1.838000000     1.371000000     0.695000000
C    -0.698000000     0.565000000    -1.015000000
H    -1.358000000     1.002000000    -1.760000000
C     0.404000000    -0.305000000    -1.389000000
H     0.453000000    -0.644000000    -2.421000000
C     1.210000000    -0.872000000    -0.418000000
C     2.369000000    -1.777000000    -0.857000000
O     3.194000000    -2.155000000    -0.022000000
O     2.560000000    -2.024000000    -2.037000000
