14
-78.50839
C     1.499000000     0.031000000    -0.072000000
H     2.584000000    -0.002000000    -0.017000000
C     0.691000000     0.755000000     0.803000000
H     1.218000000     1.430000000     1.473000000
C    -0.675000000     0.703000000     0.745000000
H    -1.200000000     1.102000000     1.625000000
C    -1.303000000    -0.183000000    -0.140000000
H    -2.389000000    -0.219000000    -0.173000000
C    -0.591000000    -0.903000000    -0.975000000
H    -1.060000000    -1.590000000    -1.675000000
C     0.844000000    -0.841000000    -1.004000000
C     1.603000000    -1.669000000    -2.025000000
O     1.026000000    -2.508000000    -2.669000000
O     2.824000000    -1.725000000    -2.076000000
