14
-80.70150
C     0.965000000     0.972000000    -0.672000000
H     1.757000000     1.537000000    -1.157000000
C     1.189000000     0.280000000     0.542000000
H     2.194000000     0.374000000     0.946000000
C     0.192000000    -0.537000000     1.140000000
H     0.332000000    -1.101000000     2.026000000
C    -1.061000000    -0.556000000     0.468000000
H    -1.910000000    -1.061000000     0.923000000
C    -1.286000000     0.102000000    -0.719000000
H    -2.295000000     0.069000000    -1.121000000
C    -0.233000000     0.821000000    -1.340000000
C    -0.295000000     1.216000000    -2.779000000
O     0.665000000     1.591000000    -3.433000000
O    -1.353000000     1.251000000    -3.277000000
