14
-83.10916
C     0.693000000     0.866000000    -0.991000000
H     1.268000000     1.368000000    -1.765000000
C     1.357000000     0.237000000     0.103000000
H     2.400000000     0.398000000     0.365000000
C     0.556000000    -0.468000000     0.971000000
H     1.007000000    -0.915000000     1.912000000
C    -0.825000000    -0.600000000     0.816000000
H    -1.474000000    -1.130000000     1.509000000
C    -1.466000000    -0.100000000    -0.369000000
H    -2.512000000    -0.336000000    -0.548000000
C    -0.659000000     0.684000000    -1.277000000
C    -1.397000000     1.266000000    -2.431000000
O    -0.802000000     1.650000000    -3.429000000
O    -2.598000000     1.506000000    -2.429000000
