14
-91.61463
C     0.648000000     0.862000000    -1.024000000
H     1.203000000     1.487000000    -1.719000000
C     1.282000000     0.326000000     0.118000000
H     2.358000000     0.439000000     0.219000000
C     0.561000000    -0.468000000     1.019000000
H     1.090000000    -0.989000000     1.732000000
C    -0.762000000    -0.674000000     0.783000000
H    -1.389000000    -1.355000000     1.353000000
C    -1.414000000    -0.072000000    -0.318000000
H    -2.467000000    -0.207000000    -0.550000000
C    -0.703000000     0.730000000    -1.216000000
C    -1.385000000     1.249000000    -2.454000000
O    -0.690000000     1.386000000    -3.449000000
O    -2.585000000     1.515000000    -2.447000000
