14
-70.72063
C     1.404000000    -0.278000000     0.533000000
H     2.356000000    -0.289000000     1.059000000
C     0.479000000     0.691000000     0.933000000
H     0.710000000     1.330000000     1.781000000
C    -0.756000000     0.840000000     0.384000000
H    -1.458000000     1.624000000     0.774000000
C    -1.180000000    -0.069000000    -0.547000000
H    -2.187000000     0.057000000    -0.936000000
C    -0.285000000    -1.024000000    -1.008000000
H    -0.561000000    -1.622000000    -1.873000000
C     0.968000000    -1.172000000    -0.434000000
C     1.953000000    -2.164000000    -1.002000000
O     1.700000000    -2.613000000    -2.068000000
O     3.174000000    -2.131000000    -0.789000000
