14
-83.61927
C    -0.655000000     1.114000000    -0.793000000
H    -1.167000000     1.860000000    -1.395000000
C     0.708000000     0.861000000    -0.681000000
H     1.442000000     1.456000000    -1.218000000
C     1.173000000    -0.180000000     0.099000000
H     2.248000000    -0.252000000     0.273000000
C     0.394000000    -1.109000000     0.735000000
H     0.751000000    -1.954000000     1.317000000
C    -0.979000000    -0.845000000     0.614000000
H    -1.730000000    -1.486000000     1.068000000
C    -1.515000000     0.254000000    -0.124000000
C    -2.987000000     0.428000000    -0.110000000
O    -3.544000000     1.121000000    -0.911000000
O    -3.716000000    -0.178000000     0.673000000
