14
-82.31083
C    -0.678000000     0.934000000    -0.831000000
H    -1.177000000     1.642000000    -1.488000000
C     0.714000000     0.953000000    -0.594000000
H     1.301000000     1.709000000    -1.109000000
C     1.231000000    -0.005000000     0.158000000
H     2.250000000    -0.109000000     0.393000000
C     0.421000000    -0.978000000     0.768000000
H     0.778000000    -1.765000000     1.427000000
C    -0.972000000    -1.045000000     0.471000000
H    -1.709000000    -1.773000000     0.803000000
C    -1.510000000    -0.045000000    -0.294000000
C    -2.990000000     0.041000000    -0.492000000
O    -3.468000000     0.932000000    -1.189000000
O    -3.765000000    -0.521000000     0.289000000
