14
-77.75766
C    -0.521000000     1.145000000     0.760000000
H    -0.985000000     2.013000000     1.221000000
C     0.399000000     1.262000000    -0.226000000
H     0.785000000     2.251000000    -0.458000000
C     0.851000000     0.141000000    -0.904000000
H     1.672000000     0.145000000    -1.664000000
C     0.270000000    -1.099000000    -0.555000000
H     0.464000000    -1.945000000    -1.210000000
C    -0.653000000    -1.278000000     0.508000000
H    -1.060000000    -2.245000000     0.794000000
C    -1.062000000    -0.095000000     1.120000000
C    -2.121000000    -0.230000000     2.212000000
O    -3.002000000     0.553000000     2.326000000
O    -2.334000000    -1.336000000     2.671000000
