14
-88.85091
C     1.333000000     0.667000000    -0.100000000
H     2.290000000     1.182000000    -0.083000000
C     0.171000000     1.257000000     0.378000000
H     0.184000000     2.276000000     0.756000000
C    -0.994000000     0.531000000     0.427000000
H    -1.830000000     0.944000000     1.011000000
C    -1.065000000    -0.793000000    -0.003000000
H    -1.991000000    -1.344000000     0.139000000
C     0.175000000    -1.426000000    -0.406000000
H     0.150000000    -2.422000000    -0.841000000
C     1.331000000    -0.662000000    -0.507000000
C     2.572000000    -1.357000000    -0.936000000
O     2.570000000    -2.535000000    -1.215000000
O     3.538000000    -0.625000000    -1.204000000
