14
-80.64145
C    -1.165000000     0.773000000     0.406000000
H    -2.074000000     1.354000000     0.545000000
C    -0.086000000     1.284000000    -0.334000000
H    -0.224000000     2.284000000    -0.736000000
C     0.933000000     0.439000000    -0.720000000
H     1.631000000     0.828000000    -1.435000000
C     0.996000000    -0.893000000    -0.219000000
H     1.867000000    -1.500000000    -0.450000000
C    -0.010000000    -1.377000000     0.576000000
H     0.139000000    -2.299000000     1.132000000
C    -1.168000000    -0.599000000     0.852000000
C    -2.296000000    -1.122000000     1.764000000
O    -3.217000000    -0.353000000     2.209000000
O    -2.178000000    -2.173000000     2.240000000
