14
-84.81427
C    -0.571000000     1.301000000     0.443000000
H    -0.911000000     2.313000000     0.648000000
C     0.593000000     1.122000000    -0.262000000
H     1.198000000     1.967000000    -0.581000000
C     0.979000000    -0.130000000    -0.672000000
H     1.931000000    -0.173000000    -1.163000000
C     0.260000000    -1.205000000    -0.317000000
H     0.581000000    -2.198000000    -0.622000000
C    -0.940000000    -1.083000000     0.433000000
H    -1.429000000    -2.009000000     0.726000000
C    -1.320000000     0.195000000     0.848000000
C    -2.525000000     0.369000000     1.629000000
O    -2.600000000     1.373000000     2.295000000
O    -3.363000000    -0.501000000     1.671000000
