14
-81.05472
C    -0.841000000     1.179000000     0.332000000
H    -1.409000000     2.105000000     0.343000000
C    -0.138000000     0.960000000    -0.835000000
H    -0.320000000     1.604000000    -1.691000000
C     0.746000000    -0.124000000    -0.976000000
H     1.253000000    -0.277000000    -1.915000000
C     0.734000000    -1.099000000    -0.030000000
H     1.386000000    -1.965000000    -0.115000000
C    -0.065000000    -0.901000000     1.092000000
H    -0.145000000    -1.662000000     1.865000000
C    -0.761000000     0.267000000     1.357000000
C    -1.708000000     0.353000000     2.559000000
O    -2.173000000     1.412000000     2.976000000
O    -1.948000000    -0.592000000     3.317000000
