14
-88.87522
C    -0.405000000     1.346000000    -0.140000000
H    -0.598000000     2.378000000    -0.419000000
C     0.860000000     0.805000000    -0.515000000
H     1.539000000     1.427000000    -1.092000000
C     1.093000000    -0.552000000    -0.304000000
H     2.059000000    -0.879000000    -0.542000000
C     0.100000000    -1.327000000     0.298000000
H     0.427000000    -2.312000000     0.621000000
C    -1.130000000    -0.761000000     0.652000000
H    -1.809000000    -1.385000000     1.228000000
C    -1.424000000     0.574000000     0.471000000
C    -2.666000000     1.320000000     0.860000000
O    -2.772000000     2.462000000     0.488000000
O    -3.574000000     0.739000000     1.453000000
