14
-91.18741
C    -1.212000000     0.495000000     0.579000000
H    -2.059000000     0.797000000     1.190000000
C     0.075000000     0.596000000     1.129000000
H     0.127000000     1.093000000     2.094000000
C     1.166000000     0.077000000     0.449000000
H     2.087000000     0.116000000     0.979000000
C     1.008000000    -0.568000000    -0.835000000
H     1.866000000    -0.975000000    -1.364000000
C    -0.331000000    -0.682000000    -1.268000000
H    -0.430000000    -1.216000000    -2.210000000
C    -1.438000000    -0.169000000    -0.606000000
C    -2.860000000    -0.118000000    -1.168000000
O    -3.729000000     0.609000000    -0.646000000
O    -3.142000000    -0.895000000    -2.123000000
