14
-87.46536
C    -1.408000000     0.014000000     0.205000000
H    -2.429000000     0.204000000     0.528000000
C    -0.474000000     0.752000000     0.895000000
H    -0.643000000     1.453000000     1.709000000
C     0.870000000     0.653000000     0.557000000
H     1.546000000     1.322000000     1.021000000
C     1.252000000    -0.331000000    -0.382000000
H     2.318000000    -0.421000000    -0.570000000
C     0.280000000    -1.065000000    -1.083000000
H     0.631000000    -1.718000000    -1.878000000
C    -1.081000000    -0.916000000    -0.730000000
C    -2.165000000    -1.696000000    -1.498000000
O    -3.353000000    -1.391000000    -1.392000000
O    -1.801000000    -2.710000000    -2.004000000
