14
-86.70600
C    -1.266000000    -0.570000000     0.515000000
H    -2.154000000    -0.921000000     1.034000000
C    -0.345000000     0.124000000     1.277000000
H    -0.519000000     0.279000000     2.339000000
C     0.794000000     0.588000000     0.681000000
H     1.599000000     1.170000000     1.304000000
C     1.024000000     0.276000000    -0.612000000
H     1.973000000     0.625000000    -1.010000000
C     0.129000000    -0.359000000    -1.438000000
H     0.335000000    -0.387000000    -2.505000000
C    -1.050000000    -0.800000000    -0.859000000
C    -2.015000000    -1.534000000    -1.738000000
O    -2.934000000    -2.071000000    -1.147000000
O    -1.941000000    -1.589000000    -2.982000000
