14
-88.51737
C    -0.372000000     1.341000000     0.623000000
H    -0.508000000     2.325000000     1.065000000
C     0.969000000     0.769000000     0.549000000
H     1.826000000     1.228000000     1.035000000
C     1.131000000    -0.513000000     0.041000000
H     2.066000000    -0.993000000     0.111000000
C     0.046000000    -1.172000000    -0.573000000
H     0.162000000    -2.188000000    -0.941000000
C    -1.219000000    -0.569000000    -0.613000000
H    -1.977000000    -1.250000000    -0.990000000
C    -1.419000000     0.722000000    -0.036000000
C    -2.739000000     1.406000000    -0.184000000
O    -2.923000000     2.507000000     0.371000000
O    -3.671000000     0.947000000    -0.854000000
