14
-91.01034
C    -1.307000000     0.343000000     0.537000000
H    -2.219000000     0.565000000     1.087000000
C    -0.119000000     0.353000000     1.303000000
H    -0.175000000     0.559000000     2.369000000
C     1.019000000     0.092000000     0.625000000
H     1.936000000    -0.082000000     1.196000000
C     1.054000000    -0.230000000    -0.739000000
H     1.960000000    -0.505000000    -1.272000000
C    -0.139000000    -0.214000000    -1.473000000
H    -0.167000000    -0.548000000    -2.507000000
C    -1.341000000    -0.027000000    -0.815000000
C    -2.620000000    -0.260000000    -1.546000000
O    -3.689000000     0.276000000    -1.172000000
O    -2.550000000    -0.911000000    -2.577000000
