14
-86.60578
C    -1.257000000     0.461000000     0.682000000
H    -2.178000000     0.756000000     1.177000000
C    -0.278000000    -0.380000000     1.228000000
H    -0.528000000    -0.918000000     2.139000000
C     0.833000000    -0.777000000     0.500000000
H     1.610000000    -1.508000000     0.811000000
C     1.022000000    -0.229000000    -0.750000000
H     1.883000000    -0.562000000    -1.324000000
C     0.088000000     0.680000000    -1.262000000
H     0.434000000     1.150000000    -2.179000000
C    -1.070000000     1.025000000    -0.583000000
C    -2.071000000     1.956000000    -1.289000000
O    -3.099000000     2.262000000    -0.721000000
O    -1.759000000     2.486000000    -2.311000000
