14
-90.78201
C    -0.755000000     0.783000000     0.963000000
H    -1.340000000     1.295000000     1.723000000
C    -0.138000000    -0.409000000     1.262000000
H    -0.315000000    -0.895000000     2.218000000
C     0.529000000    -1.093000000     0.232000000
H     0.921000000    -2.047000000     0.401000000
C     0.591000000    -0.576000000    -1.032000000
H     1.178000000    -1.071000000    -1.801000000
C     0.034000000     0.672000000    -1.362000000
H     0.139000000     1.039000000    -2.380000000
C    -0.658000000     1.399000000    -0.341000000
C    -1.181000000     2.851000000    -0.514000000
O    -1.701000000     3.410000000     0.474000000
O    -1.183000000     3.387000000    -1.600000000
