14
-81.05827
C    -0.779000000     0.172000000     1.242000000
H    -1.515000000     0.094000000     2.038000000
C    -0.211000000    -1.030000000     0.785000000
H    -0.461000000    -1.979000000     1.253000000
C     0.529000000    -1.043000000    -0.354000000
H     0.844000000    -2.045000000    -0.711000000
C     0.721000000     0.131000000    -1.055000000
H     1.255000000     0.150000000    -2.002000000
C     0.189000000     1.350000000    -0.565000000
H     0.379000000     2.304000000    -1.050000000
C    -0.612000000     1.365000000     0.567000000
C    -1.241000000     2.671000000     1.069000000
O    -2.062000000     2.616000000     1.900000000
O    -1.042000000     3.710000000     0.508000000
