14
-92.58629
C    -0.966000000     0.500000000     0.984000000
H    -1.605000000     0.810000000     1.807000000
C    -0.195000000    -0.666000000     1.152000000
H    -0.232000000    -1.306000000     2.030000000
C     0.733000000    -1.003000000     0.114000000
H     1.362000000    -1.822000000     0.252000000
C     0.746000000    -0.250000000    -1.033000000
H     1.373000000    -0.651000000    -1.825000000
C    -0.013000000     0.955000000    -1.199000000
H     0.058000000     1.597000000    -2.074000000
C    -0.798000000     1.333000000    -0.127000000
C    -1.797000000     2.489000000    -0.195000000
O    -2.384000000     2.811000000     0.829000000
O    -1.806000000     3.116000000    -1.292000000
