14
-91.62135
C    -1.286000000     0.195000000     0.645000000
H    -2.195000000     0.248000000     1.239000000
C    -0.661000000    -1.051000000     0.520000000
H    -1.159000000    -1.854000000     1.057000000
C     0.537000000    -1.123000000    -0.204000000
H     0.979000000    -2.149000000    -0.243000000
C     1.079000000     0.045000000    -0.741000000
H     1.933000000    -0.094000000    -1.399000000
C     0.448000000     1.291000000    -0.599000000
H     0.884000000     2.181000000    -1.044000000
C    -0.681000000     1.415000000     0.213000000
C    -1.338000000     2.744000000     0.653000000
O    -2.295000000     2.749000000     1.459000000
O    -0.930000000     3.749000000     0.109000000
