14
-87.89602
C    -1.025000000     0.607000000     0.921000000
H    -1.780000000     0.925000000     1.636000000
C    -0.080000000    -0.359000000     1.315000000
H    -0.163000000    -0.760000000     2.322000000
C     0.884000000    -0.735000000     0.379000000
H     1.557000000    -1.428000000     0.691000000
C     0.883000000    -0.214000000    -0.943000000
H     1.652000000    -0.487000000    -1.662000000
C    -0.111000000     0.670000000    -1.296000000
H    -0.066000000     1.012000000    -2.327000000
C    -1.087000000     1.066000000    -0.406000000
C    -2.246000000     1.856000000    -0.910000000
O    -3.123000000     2.267000000    -0.164000000
O    -2.404000000     1.949000000    -2.109000000
