14
-86.63801
C    -1.360000000     0.244000000     0.602000000
H    -2.408000000     0.357000000     0.866000000
C    -0.667000000    -0.942000000     0.676000000
H    -1.128000000    -1.848000000     1.060000000
C     0.674000000    -1.010000000     0.223000000
H     1.305000000    -1.890000000     0.344000000
C     1.258000000     0.076000000    -0.481000000
H     2.265000000     0.047000000    -0.890000000
C     0.447000000     1.203000000    -0.581000000
H     0.914000000     1.985000000    -1.174000000
C    -0.859000000     1.334000000    -0.054000000
C    -1.621000000     2.597000000    -0.269000000
O    -2.712000000     2.769000000     0.315000000
O    -1.352000000     3.407000000    -1.164000000
