14
-85.22471
C    -0.450000000    -0.102000000    -1.406000000
H    -0.820000000    -0.467000000    -2.361000000
C    -0.543000000    -1.079000000    -0.400000000
H    -0.931000000    -2.061000000    -0.658000000
C    -0.084000000    -0.854000000     0.836000000
H    -0.190000000    -1.661000000     1.552000000
C     0.441000000     0.365000000     1.179000000
H     0.728000000     0.599000000     2.201000000
C     0.558000000     1.361000000     0.199000000
H     0.722000000     2.381000000     0.538000000
C     0.077000000     1.132000000    -1.079000000
C     0.324000000     2.177000000    -2.217000000
O    -0.029000000     2.001000000    -3.345000000
O     0.939000000     3.197000000    -1.901000000
