14
-76.50099
C     0.238000000    -0.500000000     1.415000000
H     0.326000000    -0.801000000     2.455000000
C    -0.685000000    -0.970000000     0.516000000
H    -1.331000000    -1.800000000     0.791000000
C    -0.797000000    -0.509000000    -0.758000000
H    -1.549000000    -0.853000000    -1.581000000
C    -0.029000000     0.546000000    -1.120000000
H    -0.199000000     0.919000000    -2.127000000
C     0.939000000     1.144000000    -0.263000000
H     1.645000000     1.901000000    -0.594000000
C     1.048000000     0.572000000     0.992000000
C     1.969000000     1.169000000     1.999000000
O     2.640000000     2.162000000     1.762000000
O     2.211000000     0.585000000     2.991000000
