14
-77.52563
C    -0.940000000    -0.113000000    -1.091000000
H    -1.543000000    -0.389000000    -1.952000000
C    -0.617000000    -1.119000000    -0.194000000
H    -0.975000000    -2.129000000    -0.374000000
C     0.196000000    -0.834000000     0.810000000
H     0.376000000    -1.660000000     1.403000000
C     0.878000000     0.301000000     0.891000000
H     1.728000000     0.407000000     1.561000000
C     0.470000000     1.367000000     0.052000000
H     0.890000000     2.364000000     0.152000000
C    -0.486000000     1.172000000    -0.945000000
C    -0.833000000     2.265000000    -1.888000000
O    -1.760000000     2.095000000    -2.691000000
O    -0.132000000     3.229000000    -1.928000000
