14
-81.62134
C    -0.870000000     0.518000000    -1.035000000
H    -1.708000000     0.805000000    -1.666000000
C    -0.206000000    -0.710000000    -1.125000000
H    -0.433000000    -1.416000000    -1.919000000
C     0.665000000    -1.046000000    -0.086000000
H     0.980000000    -2.096000000    -0.012000000
C     0.771000000    -0.210000000     0.983000000
H     1.291000000    -0.608000000     1.850000000
C     0.184000000     1.051000000     1.088000000
H     0.319000000     1.669000000     1.972000000
C    -0.722000000     1.386000000     0.041000000
C    -1.506000000     2.632000000     0.116000000
O    -2.609000000     2.697000000    -0.385000000
O    -1.115000000     3.538000000     0.782000000
