14
-90.22580
C    -0.205000000     1.051000000    -0.988000000
H    -0.161000000     1.865000000    -1.707000000
C     0.823000000     0.166000000    -1.070000000
H     1.576000000     0.131000000    -1.853000000
C     0.918000000    -0.811000000    -0.055000000
H     1.697000000    -1.514000000    -0.135000000
C    -0.033000000    -0.873000000     0.925000000
H    -0.007000000    -1.729000000     1.594000000
C    -1.087000000     0.043000000     0.984000000
H    -1.781000000    -0.038000000     1.817000000
C    -1.182000000     1.051000000     0.010000000
C    -2.287000000     2.123000000    -0.031000000
O    -2.557000000     2.626000000    -1.105000000
O    -2.876000000     2.476000000     0.978000000
