14
-85.36278
C    -1.096000000     0.948000000    -0.275000000
H    -2.032000000     1.499000000    -0.324000000
C    -0.711000000    -0.044000000    -1.163000000
H    -1.339000000    -0.233000000    -2.031000000
C     0.339000000    -0.899000000    -0.770000000
H     0.585000000    -1.678000000    -1.478000000
C     1.080000000    -0.628000000     0.389000000
H     1.938000000    -1.285000000     0.503000000
C     0.726000000     0.405000000     1.232000000
H     1.284000000     0.519000000     2.157000000
C    -0.322000000     1.249000000     0.819000000
C    -0.791000000     2.318000000     1.766000000
O    -1.589000000     3.182000000     1.481000000
O    -0.267000000     2.373000000     2.872000000
