14
-84.37995
C    -1.312000000     0.475000000    -0.616000000
H    -2.223000000     0.865000000    -1.062000000
C    -0.036000000     0.648000000    -1.218000000
H     0.107000000     1.218000000    -2.132000000
C     1.087000000     0.179000000    -0.517000000
H     2.058000000     0.386000000    -0.877000000
C     0.982000000    -0.358000000     0.761000000
H     1.909000000    -0.572000000     1.286000000
C    -0.216000000    -0.593000000     1.368000000
H    -0.222000000    -1.168000000     2.291000000
C    -1.378000000    -0.212000000     0.704000000
C    -2.670000000    -0.331000000     1.440000000
O    -3.702000000    -0.172000000     0.790000000
O    -2.773000000    -0.753000000     2.593000000
