14
-86.61635
C    -0.385000000     1.493000000    -0.176000000
H    -0.523000000     2.564000000    -0.299000000
C     0.652000000     0.803000000    -0.872000000
H     1.320000000     1.307000000    -1.566000000
C     0.838000000    -0.575000000    -0.712000000
H     1.593000000    -1.174000000    -1.333000000
C     0.074000000    -1.244000000     0.229000000
H     0.265000000    -2.300000000     0.401000000
C    -0.919000000    -0.592000000     0.918000000
H    -1.365000000    -1.193000000     1.706000000
C    -1.104000000     0.770000000     0.848000000
C    -2.151000000     1.402000000     1.736000000
O    -2.578000000     2.525000000     1.541000000
O    -2.613000000     0.685000000     2.589000000
