14
-82.03742
C     0.133000000     1.179000000    -0.860000000
H     0.215000000     2.043000000    -1.515000000
C    -0.719000000     0.131000000    -1.013000000
H    -1.453000000     0.192000000    -1.813000000
C    -0.782000000    -0.960000000    -0.196000000
H    -1.484000000    -1.759000000    -0.323000000
C     0.107000000    -0.996000000     0.874000000
H     0.274000000    -1.796000000     1.591000000
C     1.083000000     0.018000000     0.987000000
H     1.866000000    -0.116000000     1.728000000
C     1.109000000     1.103000000     0.108000000
C     1.941000000     2.270000000     0.466000000
O     1.855000000     3.324000000    -0.188000000
O     2.420000000     2.284000000     1.561000000
