14
-86.03891
C    -0.042000000     1.232000000    -0.762000000
H    -0.034000000     2.026000000    -1.504000000
C     0.535000000     0.053000000    -1.127000000
H     0.987000000     0.070000000    -2.116000000
C     0.606000000    -1.043000000    -0.333000000
H     1.177000000    -1.852000000    -0.626000000
C     0.088000000    -0.939000000     0.967000000
H     0.200000000    -1.745000000     1.688000000
C    -0.547000000     0.268000000     1.333000000
H    -1.033000000     0.158000000     2.299000000
C    -0.644000000     1.374000000     0.472000000
C    -1.421000000     2.651000000     0.818000000
O    -1.554000000     3.532000000    -0.014000000
O    -1.878000000     2.847000000     1.950000000
