14
-84.70978
C    -0.978000000     1.020000000    -0.556000000
H    -1.634000000     1.747000000    -1.029000000
C     0.007000000     0.457000000    -1.277000000
H     0.381000000     0.808000000    -2.235000000
C     0.855000000    -0.527000000    -0.619000000
H     1.666000000    -0.865000000    -1.235000000
C     0.658000000    -0.965000000     0.693000000
H     1.273000000    -1.716000000     1.181000000
C    -0.359000000    -0.327000000     1.377000000
H    -0.518000000    -0.488000000     2.440000000
C    -1.171000000     0.620000000     0.804000000
C    -2.296000000     1.305000000     1.599000000
O    -3.000000000     2.121000000     1.032000000
O    -2.460000000     0.925000000     2.691000000
