14
-87.31366
C    -0.860000000     1.101000000    -0.511000000
H    -1.351000000     1.884000000    -1.083000000
C    -0.169000000     0.116000000    -1.288000000
H    -0.355000000     0.262000000    -2.348000000
C     0.500000000    -0.912000000    -0.673000000
H     0.982000000    -1.667000000    -1.327000000
C     0.607000000    -0.858000000     0.708000000
H     1.288000000    -1.644000000     1.024000000
C     0.063000000     0.174000000     1.512000000
H     0.337000000     0.213000000     2.564000000
C    -0.721000000     1.174000000     0.871000000
C    -1.305000000     2.320000000     1.690000000
O    -2.173000000     3.037000000     1.245000000
O    -0.854000000     2.488000000     2.819000000
