14
-88.27712
C     1.137000000     0.836000000    -0.487000000
H     1.866000000     1.434000000    -1.028000000
C     0.851000000    -0.518000000    -0.881000000
H     1.426000000    -0.982000000    -1.678000000
C    -0.175000000    -1.209000000    -0.317000000
H    -0.452000000    -2.128000000    -0.711000000
C    -0.916000000    -0.562000000     0.684000000
H    -1.756000000    -1.060000000     1.162000000
C    -0.618000000     0.728000000     1.081000000
H    -1.258000000     1.272000000     1.770000000
C     0.371000000     1.493000000     0.491000000
C     0.469000000     2.993000000     0.812000000
O     1.328000000     3.663000000     0.345000000
O    -0.542000000     3.461000000     1.360000000
