14
-77.31097
C     0.504000000     0.603000000    -1.250000000
H     0.645000000     1.030000000    -2.239000000
C    -0.328000000    -0.538000000    -1.203000000
H    -0.582000000    -0.950000000    -2.176000000
C    -0.710000000    -1.059000000     0.085000000
H    -1.375000000    -1.904000000     0.044000000
C    -0.194000000    -0.435000000     1.248000000
H    -0.470000000    -0.914000000     2.185000000
C     0.727000000     0.639000000     1.159000000
H     1.097000000     1.154000000     2.043000000
C     1.000000000     1.274000000    -0.093000000
C     1.734000000     2.582000000    -0.165000000
O     2.191000000     2.910000000    -1.201000000
O     1.840000000     3.372000000     0.742000000
