14
-72.60516
C     0.135000000     1.329000000    -0.684000000
H     0.183000000     2.171000000    -1.370000000
C    -0.775000000     0.326000000    -1.020000000
H    -1.486000000     0.345000000    -1.842000000
C    -0.883000000    -0.833000000    -0.209000000
H    -1.713000000    -1.510000000    -0.389000000
C    -0.012000000    -0.914000000     0.895000000
H    -0.123000000    -1.813000000     1.496000000
C     0.889000000     0.013000000     1.237000000
H     1.442000000    -0.109000000     2.165000000
C     1.016000000     1.149000000     0.394000000
C     2.151000000     2.109000000     0.594000000
O     2.413000000     2.918000000    -0.283000000
O     2.378000000     2.422000000     1.705000000
