14
-88.91339
C     0.850000000     1.053000000    -0.674000000
H     1.362000000     1.755000000    -1.329000000
C     0.855000000    -0.289000000    -1.000000000
H     1.372000000    -0.726000000    -1.851000000
C     0.098000000    -1.190000000    -0.292000000
H     0.082000000    -2.252000000    -0.514000000
C    -0.721000000    -0.731000000     0.736000000
H    -1.379000000    -1.460000000     1.202000000
C    -0.672000000     0.584000000     1.108000000
H    -1.239000000     0.823000000     2.004000000
C     0.119000000     1.508000000     0.456000000
C    -0.050000000     3.018000000     0.672000000
O     0.690000000     3.788000000     0.094000000
O    -0.741000000     3.334000000     1.631000000
