14
-87.59314
C     0.468000000     1.246000000    -0.674000000
H     0.839000000     2.083000000    -1.259000000
C     0.814000000    -0.050000000    -1.041000000
H     1.465000000    -0.220000000    -1.895000000
C     0.319000000    -1.127000000    -0.364000000
H     0.451000000    -2.132000000    -0.645000000
C    -0.526000000    -0.917000000     0.655000000
H    -0.959000000    -1.743000000     1.213000000
C    -0.811000000     0.367000000     1.076000000
H    -1.616000000     0.436000000     1.803000000
C    -0.286000000     1.488000000     0.472000000
C    -0.699000000     2.903000000     0.934000000
O    -0.210000000     3.932000000     0.451000000
O    -1.703000000     2.956000000     1.650000000
