14
-90.10450
C     0.547000000     0.744000000    -1.151000000
H     1.055000000     1.140000000    -2.026000000
C     0.744000000    -0.597000000    -0.858000000
H     1.261000000    -1.164000000    -1.628000000
C     0.086000000    -1.208000000     0.185000000
H     0.171000000    -2.297000000     0.325000000
C    -0.757000000    -0.438000000     1.002000000
H    -1.236000000    -0.927000000     1.846000000
C    -0.783000000     0.927000000     0.848000000
H    -1.343000000     1.558000000     1.533000000
C    -0.036000000     1.538000000    -0.182000000
C    -0.177000000     3.045000000    -0.239000000
O     0.361000000     3.689000000    -1.191000000
O    -0.820000000     3.657000000     0.612000000
