14
-81.21874
C     0.504000000     1.199000000    -0.741000000
H     1.090000000     1.992000000    -1.199000000
C     1.085000000    -0.077000000    -0.807000000
H     1.981000000    -0.313000000    -1.375000000
C     0.428000000    -1.131000000    -0.182000000
H     0.766000000    -2.178000000    -0.319000000
C    -0.739000000    -0.972000000     0.515000000
H    -1.233000000    -1.795000000     1.024000000
C    -1.183000000     0.385000000     0.794000000
H    -2.002000000     0.582000000     1.481000000
C    -0.592000000     1.452000000     0.113000000
C    -1.089000000     2.849000000     0.292000000
O    -0.705000000     3.750000000    -0.417000000
O    -1.899000000     3.198000000     1.124000000
