14
-87.56993
C     1.184000000     0.774000000     0.113000000
H     2.153000000     1.256000000     0.212000000
C     0.448000000     0.453000000     1.212000000
H     0.742000000     0.818000000     2.192000000
C    -0.697000000    -0.293000000     0.969000000
H    -1.288000000    -0.729000000     1.837000000
C    -1.024000000    -0.773000000    -0.318000000
H    -1.841000000    -1.453000000    -0.545000000
C    -0.273000000    -0.331000000    -1.394000000
H    -0.590000000    -0.620000000    -2.392000000
C     0.830000000     0.468000000    -1.210000000
C     1.629000000     0.950000000    -2.447000000
O     1.289000000     0.579000000    -3.568000000
O     2.587000000     1.659000000    -2.328000000
