14
-90.45924
C     0.805000000     0.468000000     1.136000000
H     1.474000000     0.781000000     1.934000000
C     1.062000000    -0.700000000     0.379000000
H     1.864000000    -1.364000000     0.688000000
C     0.152000000    -1.128000000    -0.594000000
H     0.214000000    -2.044000000    -1.177000000
C    -0.967000000    -0.314000000    -0.774000000
H    -1.734000000    -0.655000000    -1.463000000
C    -1.158000000     0.896000000    -0.059000000
H    -2.100000000     1.404000000    -0.254000000
C    -0.220000000     1.374000000     0.841000000
C    -0.414000000     2.742000000     1.466000000
O     0.644000000     3.324000000     1.689000000
O    -1.506000000     3.059000000     1.913000000
