14
-85.28102
C    -0.825000000    -1.177000000     0.634000000
H    -1.388000000    -2.046000000     0.964000000
C    -0.949000000    -0.702000000    -0.697000000
H    -1.667000000    -1.067000000    -1.428000000
C    -0.156000000     0.382000000    -1.163000000
H    -0.290000000     0.779000000    -2.199000000
C     0.797000000     0.928000000    -0.357000000
H     1.419000000     1.742000000    -0.721000000
C     0.894000000     0.541000000     0.975000000
H     1.554000000     1.128000000     1.609000000
C     0.051000000    -0.481000000     1.518000000
C     0.302000000    -0.773000000     2.943000000
O     1.199000000    -0.225000000     3.573000000
O    -0.294000000    -1.671000000     3.559000000
