14
-84.44018
C    -1.103000000     0.069000000     0.991000000
H    -1.995000000     0.094000000     1.611000000
C    -1.050000000     0.873000000    -0.114000000
H    -1.928000000     1.400000000    -0.478000000
C     0.061000000     0.750000000    -0.953000000
H     0.048000000     1.256000000    -1.923000000
C     1.112000000    -0.104000000    -0.673000000
H     1.907000000    -0.202000000    -1.407000000
C     1.017000000    -0.936000000     0.433000000
H     1.858000000    -1.611000000     0.569000000
C    -0.124000000    -0.900000000     1.300000000
C    -0.113000000    -1.802000000     2.531000000
O     0.795000000    -2.527000000     2.729000000
O    -0.969000000    -1.654000000     3.416000000
