14
-81.76593
C    -1.472000000    -0.082000000     0.241000000
H    -2.545000000    -0.004000000     0.398000000
C    -0.952000000     0.733000000    -0.693000000
H    -1.560000000     1.388000000    -1.311000000
C     0.454000000     0.766000000    -0.773000000
H     0.934000000     1.351000000    -1.615000000
C     1.270000000    -0.010000000     0.056000000
H     2.331000000     0.211000000    -0.025000000
C     0.733000000    -0.891000000     0.864000000
H     1.418000000    -1.559000000     1.380000000
C    -0.684000000    -1.018000000     0.921000000
C    -1.294000000    -2.103000000     1.750000000
O    -0.598000000    -2.778000000     2.455000000
O    -2.540000000    -2.246000000     1.743000000
