14
-83.27596
C    -1.064000000     0.724000000     0.901000000
H    -1.820000000     1.354000000     1.361000000
C    -0.395000000     1.227000000    -0.285000000
H    -0.733000000     2.188000000    -0.664000000
C     0.599000000     0.547000000    -0.961000000
H     0.981000000     0.869000000    -1.911000000
C     1.103000000    -0.629000000    -0.354000000
H     1.922000000    -1.171000000    -0.820000000
C     0.490000000    -1.189000000     0.788000000
H     0.740000000    -2.191000000     1.126000000
C    -0.668000000    -0.529000000     1.342000000
C    -1.446000000    -1.233000000     2.418000000
O    -1.107000000    -2.325000000     2.800000000
O    -2.477000000    -0.802000000     2.855000000
