14
-83.50292
C    -1.365000000     0.214000000     0.457000000
H    -2.360000000     0.601000000     0.666000000
C    -0.674000000     1.021000000    -0.453000000
H    -1.149000000     1.850000000    -0.971000000
C     0.552000000     0.590000000    -0.905000000
H     1.017000000     1.167000000    -1.727000000
C     1.135000000    -0.519000000    -0.339000000
H     2.135000000    -0.831000000    -0.628000000
C     0.546000000    -1.191000000     0.708000000
H     1.064000000    -1.944000000     1.297000000
C    -0.775000000    -0.922000000     1.077000000
C    -1.510000000    -1.468000000     2.282000000
O    -0.881000000    -1.966000000     3.159000000
O    -2.708000000    -1.453000000     2.268000000
