14
-84.33557
C    -1.464000000     0.493000000     0.115000000
H    -2.403000000     0.938000000     0.434000000
C    -0.430000000     1.222000000    -0.409000000
H    -0.681000000     2.237000000    -0.706000000
C     0.887000000     0.723000000    -0.479000000
H     1.636000000     1.419000000    -0.871000000
C     1.097000000    -0.598000000    -0.108000000
H     2.098000000    -1.002000000    -0.239000000
C     0.081000000    -1.377000000     0.402000000
H     0.321000000    -2.399000000     0.686000000
C    -1.249000000    -0.871000000     0.431000000
C    -2.272000000    -1.752000000     1.024000000
O    -1.997000000    -2.776000000     1.678000000
O    -3.398000000    -1.377000000     0.988000000
