14
-84.78641
C    -1.153000000     0.834000000     0.266000000
H    -1.962000000     1.552000000     0.368000000
C    -0.183000000     1.193000000    -0.606000000
H    -0.276000000     2.086000000    -1.219000000
C     0.905000000     0.312000000    -0.784000000
H     1.597000000     0.586000000    -1.600000000
C     0.950000000    -0.891000000    -0.010000000
H     1.741000000    -1.607000000    -0.218000000
C    -0.013000000    -1.181000000     0.920000000
H     0.034000000    -2.147000000     1.415000000
C    -1.096000000    -0.322000000     1.057000000
C    -2.078000000    -0.547000000     2.187000000
O    -2.284000000    -1.647000000     2.681000000
O    -2.878000000     0.334000000     2.478000000
