14
-90.92600
C    -0.661000000     1.202000000    -0.471000000
H    -0.975000000     2.155000000    -0.888000000
C     0.671000000     1.038000000    -0.160000000
H     1.361000000     1.872000000    -0.261000000
C     1.195000000    -0.184000000     0.228000000
H     2.266000000    -0.288000000     0.513000000
C     0.375000000    -1.280000000     0.315000000
H     0.803000000    -2.198000000     0.709000000
C    -0.980000000    -1.117000000     0.060000000
H    -1.637000000    -1.946000000     0.310000000
C    -1.536000000     0.116000000    -0.298000000
C    -3.052000000     0.298000000    -0.330000000
O    -3.753000000    -0.573000000     0.213000000
O    -3.534000000     1.362000000    -0.652000000
