14
-88.23535
C    -0.785000000     1.018000000    -0.754000000
H    -1.233000000     1.863000000    -1.270000000
C     0.199000000     1.240000000     0.235000000
H     0.275000000     2.261000000     0.599000000
C     0.818000000     0.206000000     0.916000000
H     1.500000000     0.499000000     1.799000000
C     0.583000000    -1.101000000     0.525000000
H     1.032000000    -1.919000000     1.082000000
C    -0.361000000    -1.333000000    -0.535000000
H    -0.572000000    -2.376000000    -0.758000000
C    -1.056000000    -0.262000000    -1.181000000
C    -2.024000000    -0.543000000    -2.240000000
O    -2.309000000    -1.702000000    -2.624000000
O    -2.544000000     0.409000000    -2.820000000
