14
-85.53592
C     0.035000000    -0.164000000    -1.471000000
H     0.047000000    -0.071000000    -2.554000000
C     0.948000000     0.519000000    -0.707000000
H     1.682000000     1.167000000    -1.179000000
C     0.839000000     0.622000000     0.667000000
H     1.501000000     1.227000000     1.189000000
C    -0.250000000    -0.023000000     1.297000000
H    -0.348000000     0.044000000     2.378000000
C    -1.092000000    -0.818000000     0.552000000
H    -1.902000000    -1.362000000     1.031000000
C    -1.047000000    -0.789000000    -0.858000000
C    -2.162000000    -1.427000000    -1.619000000
O    -2.869000000    -2.220000000    -1.038000000
O    -2.308000000    -1.341000000    -2.826000000
