14
-82.27157
C     0.220000000    -0.352000000    -1.414000000
H     0.480000000    -0.697000000    -2.411000000
C     1.138000000     0.190000000    -0.541000000
H     2.166000000     0.327000000    -0.863000000
C     0.834000000     0.517000000     0.732000000
H     1.611000000     0.969000000     1.385000000
C    -0.460000000     0.354000000     1.226000000
H    -0.662000000     0.661000000     2.249000000
C    -1.373000000    -0.376000000     0.487000000
H    -2.297000000    -0.668000000     0.979000000
C    -1.097000000    -0.716000000    -0.849000000
C    -2.017000000    -1.543000000    -1.672000000
O    -3.227000000    -1.647000000    -1.397000000
O    -1.708000000    -1.959000000    -2.777000000
