14
-77.82892
C     1.109000000    -0.113000000    -0.933000000
H     2.024000000    -0.107000000    -1.519000000
C     1.199000000     0.192000000     0.413000000
H     2.109000000     0.538000000     0.896000000
C     0.094000000     0.251000000     1.209000000
H     0.112000000     0.585000000     2.240000000
C    -1.185000000    -0.096000000     0.645000000
H    -2.042000000    -0.016000000     1.309000000
C    -1.246000000    -0.506000000    -0.701000000
H    -2.200000000    -0.834000000    -1.108000000
C    -0.126000000    -0.328000000    -1.534000000
C    -0.192000000    -0.489000000    -3.086000000
O    -1.220000000    -0.751000000    -3.698000000
O     0.796000000    -0.617000000    -3.711000000
