14
-86.76347
C     0.844000000     0.870000000    -0.941000000
H     1.457000000     1.529000000    -1.550000000
C     1.018000000     0.771000000     0.449000000
H     1.891000000     1.257000000     0.876000000
C     0.183000000    -0.097000000     1.182000000
H     0.425000000    -0.196000000     2.312000000
C    -0.920000000    -0.729000000     0.673000000
H    -1.567000000    -1.329000000     1.307000000
C    -1.134000000    -0.610000000    -0.762000000
H    -2.023000000    -1.059000000    -1.198000000
C    -0.258000000     0.220000000    -1.535000000
C    -0.439000000     0.278000000    -3.020000000
O    -1.511000000     0.062000000    -3.507000000
O     0.511000000     0.687000000    -3.655000000
