14
-89.99221
C     0.970000000     0.740000000    -0.793000000
H     1.778000000     1.306000000    -1.250000000
C     0.999000000     0.610000000     0.585000000
H     1.733000000     1.134000000     1.192000000
C    -0.021000000    -0.070000000     1.196000000
H    -0.010000000    -0.070000000     2.285000000
C    -1.020000000    -0.733000000     0.443000000
H    -1.813000000    -1.309000000     0.914000000
C    -0.984000000    -0.639000000    -0.903000000
H    -1.694000000    -1.243000000    -1.463000000
C    -0.014000000     0.135000000    -1.548000000
C     0.018000000     0.236000000    -3.005000000
O    -0.803000000    -0.401000000    -3.662000000
O     0.915000000     0.860000000    -3.587000000
