14
-87.65973
C     0.669000000     0.807000000    -1.095000000
H     1.170000000     1.450000000    -1.814000000
C     1.031000000     0.903000000     0.231000000
H     1.879000000     1.514000000     0.533000000
C     0.297000000     0.182000000     1.128000000
H     0.555000000     0.226000000     2.189000000
C    -0.847000000    -0.580000000     0.797000000
H    -1.456000000    -1.087000000     1.541000000
C    -1.105000000    -0.797000000    -0.568000000
H    -1.892000000    -1.492000000    -0.847000000
C    -0.353000000    -0.075000000    -1.516000000
C    -0.746000000    -0.259000000    -2.952000000
O    -1.667000000    -0.932000000    -3.337000000
O     0.063000000     0.201000000    -3.735000000
