14
-81.23570
C     0.243000000     0.914000000    -1.137000000
H     0.269000000     1.764000000    -1.814000000
C     0.139000000     1.239000000     0.254000000
H     0.162000000     2.262000000     0.620000000
C    -0.043000000     0.264000000     1.206000000
H    -0.245000000     0.483000000     2.224000000
C    -0.026000000    -1.027000000     0.779000000
H    -0.102000000    -1.779000000     1.561000000
C     0.080000000    -1.376000000    -0.538000000
H     0.023000000    -2.443000000    -0.739000000
C     0.156000000    -0.430000000    -1.519000000
C     0.153000000    -0.728000000    -2.966000000
O    -0.146000000    -1.870000000    -3.161000000
O     0.305000000     0.049000000    -3.895000000
