14
-84.60568
C     1.168000000     0.727000000    -0.636000000
H     2.048000000     1.272000000    -0.966000000
C     0.618000000     1.006000000     0.598000000
H     1.009000000     1.726000000     1.313000000
C    -0.472000000     0.279000000     1.067000000
H    -0.964000000     0.515000000     2.061000000
C    -1.101000000    -0.689000000     0.240000000
H    -1.949000000    -1.314000000     0.506000000
C    -0.544000000    -0.981000000    -1.001000000
H    -1.039000000    -1.708000000    -1.640000000
C     0.576000000    -0.229000000    -1.425000000
C     1.271000000    -0.700000000    -2.603000000
O     0.873000000    -1.733000000    -3.187000000
O     2.147000000    -0.062000000    -3.140000000
