14
-90.40716
C     1.247000000     0.173000000    -0.697000000
H     2.263000000     0.174000000    -1.083000000
C     0.936000000     0.731000000     0.558000000
H     1.603000000     1.326000000     1.176000000
C    -0.279000000     0.449000000     1.075000000
H    -0.475000000     0.675000000     2.126000000
C    -1.212000000    -0.242000000     0.351000000
H    -2.191000000    -0.444000000     0.778000000
C    -0.974000000    -0.666000000    -0.961000000
H    -1.771000000    -1.119000000    -1.545000000
C     0.322000000    -0.510000000    -1.465000000
C     0.792000000    -1.117000000    -2.788000000
O     0.201000000    -2.109000000    -3.136000000
O     1.728000000    -0.608000000    -3.459000000
