14
-78.61567
C     0.991000000     0.184000000    -0.974000000
H     1.913000000     0.224000000    -1.547000000
C     1.143000000     0.666000000     0.259000000
H     2.071000000     1.165000000     0.525000000
C     0.075000000     0.492000000     1.138000000
H     0.132000000     0.875000000     2.136000000
C    -1.059000000    -0.141000000     0.668000000
H    -1.809000000    -0.417000000     1.404000000
C    -1.224000000    -0.597000000    -0.676000000
H    -2.122000000    -1.064000000    -1.071000000
C    -0.130000000    -0.432000000    -1.490000000
C    -0.177000000    -0.930000000    -2.923000000
O    -0.922000000    -1.774000000    -3.261000000
O     0.678000000    -0.575000000    -3.718000000
