14
-84.37182
C     0.191000000     1.009000000    -1.041000000
H     0.206000000     1.821000000    -1.763000000
C     0.657000000     1.132000000     0.267000000
H     1.206000000     2.013000000     0.588000000
C     0.427000000     0.080000000     1.203000000
H     0.800000000     0.171000000     2.211000000
C    -0.231000000    -1.104000000     0.766000000
H    -0.424000000    -1.951000000     1.419000000
C    -0.570000000    -1.253000000    -0.631000000
H    -0.912000000    -2.214000000    -1.010000000
C    -0.343000000    -0.219000000    -1.519000000
C    -0.876000000    -0.236000000    -2.958000000
O    -1.472000000    -1.228000000    -3.383000000
O    -1.069000000     0.775000000    -3.620000000
