14
-88.59959
C    -1.082000000     0.623000000    -0.810000000
H    -1.950000000     1.086000000    -1.272000000
C    -0.658000000     0.999000000     0.401000000
H    -1.118000000     1.794000000     0.983000000
C     0.425000000     0.434000000     1.057000000
H     0.788000000     0.822000000     2.078000000
C     1.079000000    -0.668000000     0.471000000
H     1.923000000    -1.198000000     0.905000000
C     0.669000000    -1.016000000    -0.778000000
H     1.091000000    -1.848000000    -1.336000000
C    -0.413000000    -0.430000000    -1.460000000
C    -1.048000000    -1.023000000    -2.709000000
O    -0.532000000    -2.049000000    -3.158000000
O    -1.974000000    -0.452000000    -3.261000000
