14
-87.35396
C    -1.259000000     0.273000000    -0.727000000
H    -2.203000000     0.592000000    -1.162000000
C    -1.149000000     0.236000000     0.654000000
H    -2.038000000     0.478000000     1.232000000
C     0.102000000     0.073000000     1.240000000
H     0.286000000     0.076000000     2.329000000
C     1.248000000    -0.124000000     0.424000000
H     2.169000000    -0.436000000     0.909000000
C     1.100000000    -0.277000000    -0.936000000
H     2.020000000    -0.507000000    -1.467000000
C    -0.137000000    -0.054000000    -1.536000000
C    -0.312000000    -0.098000000    -3.046000000
O     0.645000000    -0.144000000    -3.815000000
O    -1.418000000    -0.249000000    -3.528000000
