14
-89.86072
C    -1.045000000     0.124000000    -0.973000000
H    -1.892000000     0.002000000    -1.644000000
C    -1.004000000    -0.842000000     0.010000000
H    -1.882000000    -1.475000000     0.106000000
C     0.144000000    -0.897000000     0.839000000
H     0.232000000    -1.594000000     1.629000000
C     1.210000000    -0.075000000     0.569000000
H     2.044000000    -0.181000000     1.258000000
C     1.118000000     0.971000000    -0.403000000
H     1.954000000     1.644000000    -0.575000000
C    -0.064000000     1.069000000    -1.194000000
C    -0.142000000     2.017000000    -2.338000000
O     0.737000000     2.926000000    -2.388000000
O    -1.052000000     1.882000000    -3.108000000
