14
-88.55883
C    -1.143000000    -0.016000000    -0.834000000
H    -2.057000000    -0.235000000    -1.379000000
C    -0.997000000    -0.739000000     0.380000000
H    -1.760000000    -1.435000000     0.718000000
C     0.148000000    -0.540000000     1.128000000
H     0.347000000    -1.108000000     2.023000000
C     1.090000000     0.342000000     0.648000000
H     2.012000000     0.493000000     1.204000000
C     0.951000000     0.973000000    -0.558000000
H     1.772000000     1.602000000    -0.891000000
C    -0.201000000     0.832000000    -1.353000000
C    -0.433000000     1.464000000    -2.700000000
O     0.398000000     2.234000000    -3.212000000
O    -1.277000000     0.964000000    -3.459000000
