14
-86.53213
C    -1.160000000     0.111000000    -0.778000000
H    -2.019000000     0.031000000    -1.439000000
C    -0.870000000    -0.942000000     0.105000000
H    -1.473000000    -1.842000000     0.194000000
C     0.303000000    -0.915000000     0.798000000
H     0.608000000    -1.661000000     1.564000000
C     1.113000000     0.209000000     0.692000000
H     2.082000000     0.216000000     1.186000000
C     0.784000000     1.253000000    -0.198000000
H     1.481000000     2.085000000    -0.259000000
C    -0.365000000     1.194000000    -1.007000000
C    -0.849000000     2.302000000    -1.907000000
O    -0.207000000     3.324000000    -2.077000000
O    -1.814000000     2.110000000    -2.678000000
