14
-79.33280
C    -0.953000000    -0.001000000    -1.053000000
H    -1.732000000    -0.094000000    -1.805000000
C    -0.648000000    -1.069000000    -0.300000000
H    -1.045000000    -2.046000000    -0.564000000
C     0.311000000    -0.943000000     0.649000000
H     0.649000000    -1.806000000     1.237000000
C     0.975000000     0.260000000     0.817000000
H     1.774000000     0.317000000     1.552000000
C     0.603000000     1.389000000     0.102000000
H     0.959000000     2.408000000     0.236000000
C    -0.394000000     1.213000000    -0.862000000
C    -0.974000000     2.389000000    -1.645000000
O    -0.290000000     3.394000000    -1.843000000
O    -2.149000000     2.488000000    -1.767000000
