14
-85.94022
C    -0.341000000     0.671000000    -1.258000000
H    -0.686000000     1.043000000    -2.219000000
C    -0.704000000    -0.602000000    -0.863000000
H    -1.244000000    -1.167000000    -1.619000000
C    -0.304000000    -1.127000000     0.369000000
H    -0.623000000    -2.207000000     0.694000000
C     0.611000000    -0.396000000     1.150000000
H     0.974000000    -0.836000000     2.075000000
C     0.904000000     0.932000000     0.788000000
H     1.555000000     1.540000000     1.412000000
C     0.377000000     1.440000000    -0.394000000
C     0.775000000     2.822000000    -0.721000000
O     1.419000000     3.501000000     0.051000000
O     0.596000000     3.225000000    -1.864000000
