14
-79.25408
C    -0.792000000     0.731000000    -1.127000000
H    -1.308000000     1.089000000    -2.014000000
C    -0.595000000    -0.691000000    -0.914000000
H    -0.790000000    -1.398000000    -1.716000000
C     0.055000000    -1.240000000     0.211000000
H     0.063000000    -2.350000000     0.355000000
C     0.616000000    -0.349000000     1.151000000
H     1.076000000    -0.779000000     2.037000000
C     0.456000000     1.030000000     0.981000000
H     1.061000000     1.717000000     1.568000000
C    -0.205000000     1.585000000    -0.184000000
C    -0.279000000     3.034000000    -0.476000000
O    -0.176000000     3.857000000     0.379000000
O    -0.251000000     3.451000000    -1.633000000
