14
-71.04963
C     0.232000000     0.967000000    -1.119000000
H     0.698000000     1.586000000    -1.881000000
C     0.463000000    -0.396000000    -1.147000000
H     0.877000000    -0.917000000    -2.006000000
C     0.184000000    -1.199000000    -0.016000000
H     0.550000000    -2.281000000     0.093000000
C    -0.336000000    -0.551000000     1.025000000
H    -0.520000000    -1.182000000     1.891000000
C    -0.641000000     0.722000000     1.067000000
H    -1.171000000     1.143000000     1.917000000
C    -0.369000000     1.494000000     0.032000000
C    -0.493000000     2.973000000     0.166000000
O    -1.036000000     3.427000000     1.132000000
O    -0.059000000     3.724000000    -0.700000000
