14
-84.00184
C    -0.206000000     0.708000000    -1.279000000
H    -0.528000000     0.995000000    -2.277000000
C    -0.572000000    -0.630000000    -1.019000000
H    -1.176000000    -1.247000000    -1.679000000
C    -0.349000000    -1.171000000     0.262000000
H    -0.593000000    -2.224000000     0.514000000
C     0.278000000    -0.339000000     1.294000000
H     0.359000000    -0.737000000     2.302000000
C     0.671000000     1.019000000     0.969000000
H     1.236000000     1.623000000     1.674000000
C     0.415000000     1.483000000    -0.310000000
C     0.760000000     2.905000000    -0.658000000
O     1.370000000     3.547000000     0.194000000
O     0.755000000     3.320000000    -1.826000000
