14
-81.37109
C     1.238000000     0.224000000    -0.796000000
H     2.074000000     0.372000000    -1.475000000
C     0.177000000    -0.608000000    -1.165000000
H     0.233000000    -1.180000000    -2.088000000
C    -0.939000000    -0.720000000    -0.344000000
H    -1.845000000    -1.380000000    -0.608000000
C    -0.864000000    -0.100000000     0.897000000
H    -1.714000000    -0.139000000     1.574000000
C     0.191000000     0.685000000     1.271000000
H     0.245000000     1.175000000     2.241000000
C     1.179000000     0.938000000     0.393000000
C     2.270000000     1.936000000     0.672000000
O     2.216000000     2.571000000     1.692000000
O     3.152000000     2.234000000    -0.090000000
