14
-82.32198
C     1.273000000    -0.547000000    -0.599000000
H     2.141000000    -0.943000000    -1.119000000
C    -0.012000000    -1.153000000    -0.613000000
H    -0.102000000    -2.162000000    -1.006000000
C    -1.106000000    -0.631000000     0.049000000
H    -2.080000000    -1.093000000     0.115000000
C    -0.984000000     0.692000000     0.517000000
H    -1.844000000     1.213000000     0.931000000
C     0.228000000     1.416000000     0.451000000
H     0.296000000     2.458000000     0.755000000
C     1.390000000     0.783000000    -0.125000000
C     2.726000000     1.505000000    -0.049000000
O     2.849000000     2.420000000     0.690000000
O     3.702000000     1.115000000    -0.637000000
