14
-84.02394
C     0.999000000    -0.454000000    -1.041000000
H     1.840000000    -0.979000000    -1.488000000
C    -0.113000000    -1.164000000    -0.657000000
H    -0.270000000    -2.197000000    -0.956000000
C    -0.984000000    -0.655000000     0.280000000
H    -1.903000000    -1.261000000     0.632000000
C    -0.877000000     0.658000000     0.683000000
H    -1.590000000     1.013000000     1.423000000
C     0.266000000     1.375000000     0.332000000
H     0.520000000     2.306000000     0.833000000
C     1.191000000     0.879000000    -0.565000000
C     2.477000000     1.675000000    -0.768000000
O     2.642000000     2.718000000    -0.146000000
O     3.236000000     1.460000000    -1.718000000
