14
-87.03840
C     0.805000000    -0.868000000    -0.874000000
H     1.493000000    -1.561000000    -1.351000000
C     0.350000000    -1.248000000     0.392000000
H     0.846000000    -2.077000000     0.890000000
C    -0.513000000    -0.372000000     1.068000000
H    -0.765000000    -0.465000000     2.191000000
C    -0.956000000     0.823000000     0.460000000
H    -1.657000000     1.407000000     1.051000000
C    -0.491000000     1.149000000    -0.829000000
H    -0.730000000     2.113000000    -1.271000000
C     0.342000000     0.306000000    -1.528000000
C     1.086000000     0.806000000    -2.726000000
O     0.923000000     1.936000000    -3.160000000
O     1.979000000     0.107000000    -3.228000000
