14
-83.85405
C     1.043000000    -1.021000000     0.114000000
H     1.783000000    -1.804000000     0.257000000
C    -0.016000000    -0.907000000     0.982000000
H    -0.070000000    -1.394000000     1.953000000
C    -0.900000000     0.165000000     0.878000000
H    -1.680000000     0.413000000     1.665000000
C    -0.803000000     0.904000000    -0.320000000
H    -1.544000000     1.686000000    -0.460000000
C     0.195000000     0.720000000    -1.286000000
H     0.204000000     1.331000000    -2.185000000
C     1.159000000    -0.230000000    -1.059000000
C     2.326000000    -0.429000000    -1.982000000
O     2.321000000     0.107000000    -3.104000000
O     3.326000000    -0.957000000    -1.629000000
