14
-75.93503
C     0.922000000    -0.972000000    -0.544000000
H     1.467000000    -1.848000000    -0.884000000
C     0.101000000    -1.140000000     0.590000000
H     0.007000000    -2.098000000     1.095000000
C    -0.694000000    -0.140000000     0.974000000
H    -1.309000000    -0.176000000     1.941000000
C    -0.834000000     1.093000000     0.284000000
H    -1.601000000     1.813000000     0.558000000
C     0.011000000     1.199000000    -0.835000000
H    -0.100000000     2.157000000    -1.337000000
C     0.999000000     0.239000000    -1.210000000
C     1.853000000     0.456000000    -2.398000000
O     2.210000000     1.492000000    -2.855000000
O     2.204000000    -0.530000000    -3.096000000
