14
-89.18592
C     0.113000000    -1.372000000    -0.567000000
H     0.167000000    -2.367000000    -1.001000000
C     0.120000000    -1.113000000     0.801000000
H     0.140000000    -1.917000000     1.532000000
C     0.036000000     0.223000000     1.173000000
H     0.120000000     0.450000000     2.231000000
C    -0.124000000     1.280000000     0.341000000
H    -0.217000000     2.327000000     0.618000000
C    -0.127000000     0.925000000    -1.000000000
H    -0.179000000     1.731000000    -1.727000000
C    -0.010000000    -0.332000000    -1.500000000
C     0.092000000    -0.522000000    -3.030000000
O     0.729000000     0.271000000    -3.743000000
O    -0.472000000    -1.493000000    -3.472000000
