14
-84.96798
C    -0.849000000    -0.891000000     0.806000000
H    -1.340000000    -1.537000000     1.529000000
C    -0.212000000     0.191000000     1.290000000
H    -0.384000000     0.564000000     2.297000000
C     0.528000000     1.030000000     0.463000000
H     1.028000000     1.949000000     0.788000000
C     0.723000000     0.618000000    -0.828000000
H     1.295000000     1.174000000    -1.566000000
C     0.153000000    -0.534000000    -1.319000000
H     0.249000000    -0.670000000    -2.394000000
C    -0.699000000    -1.306000000    -0.514000000
C    -1.303000000    -2.559000000    -1.055000000
O    -1.200000000    -2.825000000    -2.264000000
O    -1.923000000    -3.356000000    -0.376000000
