14
-78.60484
C    -1.190000000    -0.648000000     0.552000000
H    -1.978000000    -1.089000000     1.157000000
C    -0.488000000     0.453000000     1.074000000
H    -0.832000000     0.942000000     1.981000000
C     0.652000000     0.982000000     0.491000000
H     1.174000000     1.820000000     0.979000000
C     1.176000000     0.257000000    -0.625000000
H     2.096000000     0.613000000    -1.081000000
C     0.524000000    -0.904000000    -1.101000000
H     0.970000000    -1.356000000    -1.983000000
C    -0.676000000    -1.366000000    -0.616000000
C    -1.629000000    -2.383000000    -1.220000000
O    -1.426000000    -2.822000000    -2.315000000
O    -2.621000000    -2.787000000    -0.672000000
