14
-87.69942
C     1.051000000    -0.411000000     1.002000000
H     1.822000000    -0.485000000     1.765000000
C     0.263000000     0.717000000     1.054000000
H     0.324000000     1.394000000     1.903000000
C    -0.678000000     1.004000000     0.055000000
H    -1.334000000     1.844000000     0.124000000
C    -0.809000000     0.129000000    -1.015000000
H    -1.669000000     0.243000000    -1.671000000
C    -0.064000000    -1.020000000    -1.062000000
H    -0.211000000    -1.756000000    -1.847000000
C     0.855000000    -1.258000000    -0.079000000
C     1.595000000    -2.541000000    -0.175000000
O     1.592000000    -3.217000000    -1.213000000
O     2.180000000    -3.000000000     0.794000000
