14
-77.86373
C    -0.001000000    -1.338000000     0.641000000
H     0.114000000    -2.260000000     1.204000000
C     0.397000000    -0.184000000     1.262000000
H     0.701000000    -0.102000000     2.302000000
C     0.381000000     1.018000000     0.604000000
H     0.587000000     1.982000000     1.107000000
C    -0.114000000     1.055000000    -0.711000000
H    -0.237000000     1.994000000    -1.245000000
C    -0.526000000    -0.128000000    -1.307000000
H    -0.952000000    -0.063000000    -2.305000000
C    -0.449000000    -1.345000000    -0.702000000
C    -0.777000000    -2.616000000    -1.405000000
O    -1.058000000    -2.640000000    -2.593000000
O    -0.736000000    -3.693000000    -0.919000000
