14
-91.02290
C    -0.008000000    -0.527000000     1.360000000
H     0.047000000    -0.852000000     2.396000000
C     0.272000000     0.770000000     0.995000000
H     0.378000000     1.520000000     1.775000000
C     0.266000000     1.144000000    -0.343000000
H     0.450000000     2.139000000    -0.674000000
C     0.058000000     0.189000000    -1.327000000
H     0.141000000     0.372000000    -2.395000000
C    -0.270000000    -1.093000000    -0.950000000
H    -0.471000000    -1.846000000    -1.707000000
C    -0.333000000    -1.451000000     0.391000000
C    -0.864000000    -2.814000000     0.743000000
O    -1.051000000    -3.718000000    -0.091000000
O    -1.074000000    -3.105000000     1.924000000
