14
-83.18398
C     1.307000000    -0.442000000    -0.601000000
H     2.327000000    -0.675000000    -0.894000000
C     1.052000000     0.817000000    -0.059000000
H     1.846000000     1.559000000    -0.028000000
C    -0.205000000     1.089000000     0.477000000
H    -0.466000000     2.097000000     0.942000000
C    -1.190000000     0.151000000     0.521000000
H    -2.181000000     0.374000000     0.909000000
C    -0.956000000    -1.099000000    -0.079000000
H    -1.741000000    -1.849000000    -0.036000000
C     0.299000000    -1.408000000    -0.661000000
C     0.539000000    -2.789000000    -1.301000000
O    -0.247000000    -3.664000000    -1.242000000
O     1.625000000    -3.062000000    -1.760000000
