14
-94.88059
C     0.546000000    -0.405000000    -1.275000000
H     0.919000000    -0.521000000    -2.289000000
C     0.100000000     0.851000000    -0.947000000
H     0.253000000     1.625000000    -1.694000000
C    -0.498000000     1.133000000     0.271000000
H    -0.876000000     2.123000000     0.518000000
C    -0.567000000     0.092000000     1.188000000
H    -0.999000000     0.270000000     2.170000000
C    -0.094000000    -1.219000000     0.893000000
H    -0.017000000    -2.012000000     1.632000000
C     0.501000000    -1.473000000    -0.374000000
C     1.134000000    -2.845000000    -0.759000000
O     0.693000000    -3.855000000    -0.203000000
O     2.038000000    -2.847000000    -1.592000000
