14
-91.69738
C     0.567000000    -0.327000000    -1.411000000
H     0.902000000    -0.347000000    -2.445000000
C    -0.352000000     0.729000000    -1.090000000
H    -0.844000000     1.342000000    -1.841000000
C    -0.739000000     0.969000000     0.222000000
H    -1.420000000     1.790000000     0.535000000
C    -0.269000000     0.110000000     1.260000000
H    -0.611000000     0.252000000     2.282000000
C     0.515000000    -0.966000000     0.923000000
H     0.746000000    -1.684000000     1.706000000
C     1.026000000    -1.167000000    -0.366000000
C     1.927000000    -2.311000000    -0.636000000
O     2.293000000    -2.976000000     0.348000000
O     2.284000000    -2.529000000    -1.770000000
