14
-84.46926
C     1.051000000     1.119000000    -0.143000000
H     1.625000000     2.038000000    -0.231000000
C    -0.295000000     1.301000000     0.183000000
H    -0.564000000     2.314000000     0.469000000
C    -1.175000000     0.221000000     0.275000000
H    -2.156000000     0.353000000     0.458000000
C    -0.759000000    -1.084000000     0.002000000
H    -1.458000000    -1.903000000     0.147000000
C     0.638000000    -1.247000000    -0.341000000
H     1.025000000    -2.247000000    -0.520000000
C     1.519000000    -0.163000000    -0.447000000
C     2.936000000    -0.404000000    -0.959000000
O     3.249000000    -1.532000000    -1.311000000
O     3.641000000     0.511000000    -1.317000000
