14
-89.98730
C     1.192000000     0.941000000     0.041000000
H     2.004000000     1.633000000     0.251000000
C    -0.072000000     1.096000000     0.725000000
H    -0.147000000     1.903000000     1.449000000
C    -1.070000000     0.136000000     0.586000000
H    -2.001000000     0.316000000     1.050000000
C    -0.830000000    -1.012000000    -0.129000000
H    -1.560000000    -1.818000000    -0.105000000
C     0.346000000    -1.140000000    -0.904000000
H     0.470000000    -2.044000000    -1.495000000
C     1.393000000    -0.178000000    -0.831000000
C     2.630000000    -0.326000000    -1.681000000
O     2.607000000    -1.171000000    -2.539000000
O     3.645000000     0.360000000    -1.487000000
