14
-90.79121
C     1.214000000     0.778000000     0.231000000
H     2.078000000     1.392000000     0.474000000
C    -0.022000000     1.258000000     0.431000000
H    -0.153000000     2.297000000     0.721000000
C    -1.088000000     0.392000000     0.200000000
H    -2.074000000     0.745000000     0.370000000
C    -0.954000000    -0.882000000    -0.353000000
H    -1.836000000    -1.481000000    -0.563000000
C     0.346000000    -1.339000000    -0.626000000
H     0.506000000    -2.336000000    -1.028000000
C     1.441000000    -0.536000000    -0.249000000
C     2.866000000    -0.937000000    -0.423000000
O     3.129000000    -2.133000000    -0.651000000
O     3.805000000    -0.153000000    -0.238000000
