14
-88.32362
C     1.157000000     0.080000000     0.869000000
H     1.973000000     0.003000000     1.583000000
C    -0.044000000     0.711000000     1.159000000
H    -0.295000000     1.270000000     2.057000000
C    -1.064000000     0.624000000     0.190000000
H    -2.085000000     0.986000000     0.381000000
C    -0.797000000    -0.090000000    -0.955000000
H    -1.586000000    -0.225000000    -1.691000000
C     0.426000000    -0.795000000    -1.199000000
H     0.481000000    -1.475000000    -2.045000000
C     1.397000000    -0.752000000    -0.236000000
C     2.639000000    -1.629000000    -0.330000000
O     2.795000000    -2.408000000    -1.287000000
O     3.436000000    -1.665000000     0.578000000
