14
-88.20416
C     0.487000000     1.268000000    -0.648000000
H     0.915000000     2.234000000    -0.901000000
C    -0.628000000     1.188000000     0.221000000
H    -1.129000000     2.093000000     0.554000000
C    -0.977000000    -0.018000000     0.761000000
H    -1.797000000    -0.035000000     1.424000000
C    -0.279000000    -1.200000000     0.326000000
H    -0.543000000    -2.108000000     0.863000000
C     0.773000000    -1.173000000    -0.545000000
H     1.379000000    -2.049000000    -0.759000000
C     1.178000000     0.097000000    -1.090000000
C     2.400000000     0.063000000    -1.952000000
O     2.685000000    -0.924000000    -2.569000000
O     3.092000000     1.087000000    -2.012000000
