14
-84.83584
C     0.591000000     1.359000000    -0.269000000
H     0.881000000     2.364000000    -0.562000000
C    -0.649000000     1.077000000     0.374000000
H    -1.261000000     1.918000000     0.688000000
C    -1.055000000    -0.210000000     0.596000000
H    -2.042000000    -0.334000000     1.000000000
C    -0.325000000    -1.286000000     0.161000000
H    -0.664000000    -2.317000000     0.222000000
C     0.905000000    -1.021000000    -0.451000000
H     1.534000000    -1.892000000    -0.617000000
C     1.423000000     0.294000000    -0.652000000
C     2.653000000     0.549000000    -1.397000000
O     3.560000000    -0.267000000    -1.439000000
O     2.886000000     1.633000000    -1.912000000
