14
-73.72584
C     0.436000000     1.318000000     0.476000000
H     0.629000000     2.292000000     0.916000000
C    -0.912000000     0.851000000     0.411000000
H    -1.769000000     1.404000000     0.789000000
C    -1.189000000    -0.350000000    -0.151000000
H    -2.280000000    -0.778000000    -0.221000000
C    -0.121000000    -1.155000000    -0.602000000
H    -0.435000000    -2.094000000    -1.051000000
C     1.186000000    -0.718000000    -0.479000000
H     1.961000000    -1.448000000    -0.698000000
C     1.471000000     0.530000000     0.102000000
C     2.903000000     1.062000000     0.215000000
O     3.784000000     0.288000000     0.074000000
O     3.199000000     2.121000000     0.639000000
