14
-84.05169
C     0.638000000     1.329000000    -0.049000000
H     0.956000000     2.364000000     0.044000000
C    -0.696000000     1.139000000    -0.089000000
H    -1.338000000     2.015000000    -0.103000000
C    -1.179000000    -0.202000000    -0.110000000
H    -2.236000000    -0.366000000    -0.261000000
C    -0.322000000    -1.230000000    -0.086000000
H    -0.783000000    -2.212000000    -0.162000000
C     1.021000000    -0.993000000    -0.018000000
H     1.692000000    -1.846000000     0.041000000
C     1.548000000     0.271000000     0.071000000
C     3.056000000     0.476000000     0.182000000
O     3.863000000    -0.342000000    -0.155000000
O     3.368000000     1.612000000     0.472000000
