14
-92.35178
C     0.703000000     0.588000000    -1.147000000
H     1.199000000     0.894000000    -2.065000000
C     1.027000000    -0.633000000    -0.597000000
H     1.878000000    -1.140000000    -1.044000000
C     0.332000000    -1.066000000     0.541000000
H     0.686000000    -1.944000000     1.013000000
C    -0.769000000    -0.363000000     1.064000000
H    -1.296000000    -0.757000000     1.929000000
C    -1.093000000     0.873000000     0.484000000
H    -1.957000000     1.386000000     0.896000000
C    -0.302000000     1.401000000    -0.597000000
C    -0.689000000     2.755000000    -1.201000000
O    -1.503000000     3.465000000    -0.639000000
O    -0.108000000     3.162000000    -2.235000000
