14
-85.97753
C     1.210000000     0.801000000    -0.365000000
H     2.009000000     1.509000000    -0.566000000
C    -0.060000000     1.320000000    -0.239000000
H    -0.215000000     2.379000000    -0.429000000
C    -1.139000000     0.454000000     0.048000000
H    -2.195000000     0.794000000     0.130000000
C    -0.896000000    -0.898000000     0.165000000
H    -1.762000000    -1.517000000     0.384000000
C     0.333000000    -1.460000000     0.012000000
H     0.553000000    -2.521000000     0.102000000
C     1.442000000    -0.605000000    -0.224000000
C     2.815000000    -1.202000000    -0.185000000
O     3.036000000    -2.395000000    -0.059000000
O     3.780000000    -0.486000000    -0.278000000
