14
-82.40961
C     1.330000000     0.530000000     0.466000000
H     2.276000000     1.019000000     0.684000000
C     0.168000000     1.216000000     0.519000000
H     0.173000000     2.230000000     0.909000000
C    -1.002000000     0.665000000     0.038000000
H    -1.949000000     1.180000000     0.072000000
C    -1.102000000    -0.657000000    -0.364000000
H    -2.090000000    -0.957000000    -0.702000000
C     0.033000000    -1.484000000    -0.378000000
H     0.030000000    -2.500000000    -0.765000000
C     1.301000000    -0.853000000     0.027000000
C     2.628000000    -1.604000000    -0.194000000
O     2.701000000    -2.777000000     0.022000000
O     3.680000000    -1.007000000    -0.518000000
