14
-91.49148
C     1.252000000     0.751000000    -0.190000000
H     2.084000000     1.382000000    -0.490000000
C    -0.073000000     1.346000000    -0.166000000
H    -0.230000000     2.398000000    -0.391000000
C    -1.117000000     0.496000000     0.106000000
H    -2.132000000     0.954000000     0.118000000
C    -0.948000000    -0.873000000     0.262000000
H    -1.834000000    -1.502000000     0.258000000
C     0.326000000    -1.428000000     0.281000000
H     0.484000000    -2.500000000     0.360000000
C     1.458000000    -0.615000000     0.065000000
C     2.845000000    -1.199000000    -0.024000000
O     3.105000000    -2.261000000     0.524000000
O     3.706000000    -0.601000000    -0.643000000
