14
-87.89174
C     1.413000000     0.262000000    -0.384000000
H     2.441000000     0.541000000    -0.602000000
C     0.343000000     1.187000000    -0.511000000
H     0.440000000     2.248000000    -0.725000000
C    -0.945000000     0.794000000    -0.156000000
H    -1.836000000     1.501000000    -0.186000000
C    -1.174000000    -0.517000000     0.291000000
H    -2.206000000    -0.623000000     0.614000000
C    -0.136000000    -1.464000000     0.392000000
H    -0.263000000    -2.437000000     0.861000000
C     1.156000000    -1.053000000     0.079000000
C     2.297000000    -2.104000000     0.174000000
O     2.216000000    -3.258000000     0.602000000
O     3.382000000    -1.711000000    -0.232000000
