14
-81.09171
C     1.334000000     0.244000000    -0.291000000
H     2.351000000     0.541000000    -0.536000000
C     0.268000000     1.075000000    -0.465000000
H     0.421000000     2.062000000    -0.894000000
C    -1.021000000     0.759000000    -0.123000000
H    -1.827000000     1.488000000    -0.231000000
C    -1.128000000    -0.461000000     0.411000000
H    -2.120000000    -0.762000000     0.739000000
C    -0.080000000    -1.351000000     0.626000000
H    -0.300000000    -2.372000000     0.927000000
C     1.163000000    -1.000000000     0.253000000
C     2.359000000    -1.959000000     0.353000000
O     2.240000000    -2.987000000     0.961000000
O     3.500000000    -1.648000000    -0.040000000
