14
-89.99744
C     1.078000000    -0.356000000    -0.851000000
H     1.995000000    -0.500000000    -1.416000000
C     0.200000000     0.679000000    -1.017000000
H     0.353000000     1.387000000    -1.828000000
C    -0.816000000     0.907000000    -0.134000000
H    -1.463000000     1.781000000    -0.345000000
C    -1.078000000    -0.028000000     0.865000000
H    -1.901000000     0.221000000     1.529000000
C    -0.177000000    -1.082000000     0.988000000
H    -0.340000000    -1.790000000     1.797000000
C     0.949000000    -1.239000000     0.180000000
C     1.944000000    -2.425000000     0.337000000
O     1.608000000    -3.474000000     0.916000000
O     3.013000000    -2.274000000    -0.198000000
