14
-80.11776
C     1.363000000     0.321000000    -0.495000000
H     2.306000000     0.766000000    -0.803000000
C     0.189000000     1.099000000    -0.728000000
H     0.319000000     2.055000000    -1.227000000
C    -1.036000000     0.627000000    -0.235000000
H    -1.922000000     1.260000000    -0.228000000
C    -1.016000000    -0.452000000     0.519000000
H    -1.928000000    -0.802000000     0.996000000
C     0.047000000    -1.239000000     0.738000000
H    -0.073000000    -2.209000000     1.213000000
C     1.320000000    -0.847000000     0.285000000
C     2.581000000    -1.672000000     0.531000000
O     2.430000000    -2.640000000     1.240000000
O     3.677000000    -1.424000000     0.076000000
