14
-86.77853
C     1.116000000     0.579000000     0.789000000
H     1.930000000     1.192000000     1.167000000
C    -0.065000000     1.238000000     0.363000000
H    -0.225000000     2.278000000     0.634000000
C    -1.052000000     0.563000000    -0.350000000
H    -1.974000000     1.069000000    -0.610000000
C    -0.919000000    -0.844000000    -0.496000000
H    -1.746000000    -1.338000000    -0.999000000
C     0.322000000    -1.456000000    -0.183000000
H     0.443000000    -2.493000000    -0.487000000
C     1.324000000    -0.758000000     0.422000000
C     2.660000000    -1.388000000     0.815000000
O     2.970000000    -2.546000000     0.647000000
O     3.401000000    -0.668000000     1.449000000
