14
-86.56153
C     0.186000000     1.299000000    -0.533000000
H     0.396000000     2.242000000    -1.032000000
C     1.148000000     0.308000000    -0.655000000
H     2.121000000     0.423000000    -1.127000000
C     0.780000000    -0.937000000    -0.059000000
H     1.493000000    -1.809000000    -0.064000000
C    -0.465000000    -1.159000000     0.519000000
H    -0.850000000    -2.099000000     0.908000000
C    -1.361000000    -0.093000000     0.597000000
H    -2.354000000    -0.132000000     1.038000000
C    -1.020000000     1.182000000     0.098000000
C    -2.026000000     2.235000000     0.127000000
O    -3.152000000     2.044000000     0.594000000
O    -1.752000000     3.431000000    -0.176000000
