14
-82.20054
C     0.836000000     0.880000000     0.809000000
H     1.298000000     1.756000000     1.258000000
C    -0.117000000     1.284000000    -0.097000000
H    -0.261000000     2.348000000    -0.267000000
C    -0.828000000     0.374000000    -0.809000000
H    -1.731000000     0.656000000    -1.312000000
C    -0.596000000    -0.978000000    -0.581000000
H    -1.257000000    -1.701000000    -1.053000000
C     0.324000000    -1.426000000     0.345000000
H     0.335000000    -2.490000000     0.569000000
C     1.070000000    -0.473000000     1.090000000
C     2.058000000    -0.887000000     2.129000000
O     2.521000000    -2.006000000     2.137000000
O     2.520000000    -0.087000000     2.915000000
