14
-79.65186
C     1.139000000     0.327000000     0.829000000
H     2.070000000     0.530000000     1.353000000
C     0.770000000     1.171000000    -0.258000000
H     1.448000000     1.984000000    -0.504000000
C    -0.320000000     0.718000000    -0.957000000
H    -0.687000000     1.291000000    -1.866000000
C    -1.069000000    -0.373000000    -0.473000000
H    -1.840000000    -0.812000000    -1.101000000
C    -0.847000000    -1.004000000     0.690000000
H    -1.435000000    -1.876000000     0.967000000
C     0.371000000    -0.763000000     1.314000000
C     0.850000000    -1.575000000     2.486000000
O     0.065000000    -2.119000000     3.209000000
O     2.016000000    -1.532000000     2.820000000
