14
-89.77948
C     0.903000000     0.131000000     1.152000000
H     1.584000000     0.424000000     1.948000000
C     0.511000000     1.174000000     0.322000000
H     0.829000000     2.209000000     0.411000000
C    -0.265000000     0.865000000    -0.755000000
H    -0.566000000     1.684000000    -1.401000000
C    -0.789000000    -0.433000000    -0.984000000
H    -1.478000000    -0.708000000    -1.778000000
C    -0.364000000    -1.440000000    -0.136000000
H    -0.694000000    -2.466000000    -0.282000000
C     0.447000000    -1.176000000     0.985000000
C     0.794000000    -2.264000000     1.934000000
O     0.308000000    -3.405000000     1.735000000
O     1.399000000    -2.040000000     2.946000000
