14
-88.65031
C     0.886000000     0.716000000     0.962000000
H     1.423000000     1.323000000     1.686000000
C     0.121000000     1.332000000    -0.007000000
H    -0.004000000     2.412000000    -0.021000000
C    -0.563000000     0.550000000    -0.918000000
H    -1.006000000     0.925000000    -1.824000000
C    -0.559000000    -0.842000000    -0.878000000
H    -1.251000000    -1.464000000    -1.440000000
C     0.177000000    -1.462000000     0.146000000
H     0.162000000    -2.524000000     0.378000000
C     0.888000000    -0.686000000     1.096000000
C     1.672000000    -1.362000000     2.134000000
O     1.483000000    -2.558000000     2.366000000
O     2.291000000    -0.640000000     2.967000000
