14
-88.47955
C     0.934000000     0.245000000     1.048000000
H     1.639000000     0.579000000     1.805000000
C     0.296000000     1.145000000     0.189000000
H     0.563000000     2.199000000     0.210000000
C    -0.540000000     0.791000000    -0.817000000
H    -1.121000000     1.531000000    -1.448000000
C    -0.896000000    -0.553000000    -0.905000000
H    -1.544000000    -0.832000000    -1.732000000
C    -0.317000000    -1.475000000     0.019000000
H    -0.510000000    -2.540000000    -0.087000000
C     0.630000000    -1.099000000     0.980000000
C     1.356000000    -2.053000000     1.972000000
O     0.967000000    -3.204000000     2.138000000
O     2.398000000    -1.682000000     2.496000000
