14
-89.19080
C     1.035000000     0.460000000     1.016000000
H     1.775000000     0.900000000     1.680000000
C     0.883000000     0.999000000    -0.256000000
H     1.366000000     1.910000000    -0.601000000
C    -0.140000000     0.512000000    -1.059000000
H    -0.327000000     1.103000000    -1.913000000
C    -0.899000000    -0.591000000    -0.701000000
H    -1.717000000    -0.950000000    -1.320000000
C    -0.581000000    -1.287000000     0.476000000
H    -1.158000000    -2.170000000     0.737000000
C     0.306000000    -0.698000000     1.344000000
C     0.391000000    -1.367000000     2.719000000
O     0.181000000    -2.577000000     2.667000000
O     0.933000000    -0.818000000     3.699000000
