14
-87.31511
C     0.373000000     1.397000000    -0.221000000
H     0.829000000     2.365000000    -0.415000000
C     1.234000000     0.294000000    -0.263000000
H     2.283000000     0.410000000    -0.521000000
C     0.743000000    -0.989000000     0.060000000
H     1.298000000    -1.913000000    -0.094000000
C    -0.607000000    -1.161000000     0.236000000
H    -0.985000000    -2.174000000     0.354000000
C    -1.455000000    -0.059000000     0.208000000
H    -2.516000000    -0.252000000     0.347000000
C    -0.992000000     1.260000000     0.114000000
C    -1.895000000     2.489000000     0.065000000
O    -3.069000000     2.335000000     0.288000000
O    -1.424000000     3.529000000    -0.264000000
