14
-88.70064
C     0.743000000     0.718000000     1.063000000
H     1.439000000     1.226000000     1.725000000
C     0.624000000     1.144000000    -0.283000000
H     1.261000000     1.892000000    -0.749000000
C    -0.221000000     0.411000000    -1.159000000
H    -0.283000000     0.647000000    -2.201000000
C    -0.841000000    -0.754000000    -0.736000000
H    -1.322000000    -1.395000000    -1.470000000
C    -0.700000000    -1.174000000     0.607000000
H    -1.187000000    -2.097000000     0.910000000
C     0.061000000    -0.392000000     1.540000000
C     0.208000000    -0.812000000     2.946000000
O    -0.318000000    -1.859000000     3.308000000
O     0.882000000    -0.166000000     3.696000000
