14
-81.81780
C     0.661000000     0.810000000     1.096000000
H     1.367000000     1.365000000     1.708000000
C     0.265000000     1.262000000    -0.180000000
H     0.429000000     2.305000000    -0.439000000
C    -0.405000000     0.470000000    -1.093000000
H    -0.651000000     0.736000000    -2.096000000
C    -0.690000000    -0.860000000    -0.719000000
H    -1.253000000    -1.501000000    -1.392000000
C    -0.294000000    -1.387000000     0.559000000
H    -0.436000000    -2.438000000     0.800000000
C     0.482000000    -0.584000000     1.400000000
C     1.057000000    -1.111000000     2.727000000
O     0.566000000    -2.070000000     3.207000000
O     2.039000000    -0.627000000     3.184000000
