14
-83.24283
C     0.180000000     1.353000000    -0.332000000
H     0.582000000     2.325000000    -0.606000000
C     0.978000000     0.372000000    -0.873000000
H     1.723000000     0.475000000    -1.658000000
C     0.691000000    -0.919000000    -0.445000000
H     1.365000000    -1.770000000    -0.693000000
C    -0.390000000    -1.175000000     0.465000000
H    -0.630000000    -2.169000000     0.834000000
C    -1.198000000    -0.082000000     0.943000000
H    -2.122000000    -0.249000000     1.491000000
C    -0.826000000     1.176000000     0.588000000
C    -1.662000000     2.310000000     1.103000000
O    -2.475000000     2.159000000     1.987000000
O    -1.371000000     3.441000000     0.712000000
