14
-79.00012
C     0.222000000    -1.431000000    -0.203000000
H     0.452000000    -2.476000000    -0.394000000
C     0.980000000    -0.436000000    -0.864000000
H     1.840000000    -0.773000000    -1.437000000
C     0.621000000     0.891000000    -0.636000000
H     1.273000000     1.724000000    -0.972000000
C    -0.539000000     1.160000000     0.067000000
H    -0.721000000     2.226000000     0.171000000
C    -1.225000000     0.200000000     0.812000000
H    -1.959000000     0.551000000     1.533000000
C    -0.860000000    -1.136000000     0.703000000
C    -1.626000000    -2.142000000     1.490000000
O    -2.594000000    -1.814000000     2.108000000
O    -1.203000000    -3.240000000     1.665000000
