14
-83.70485
C     1.088000000    -1.028000000     0.082000000
H     1.987000000    -1.634000000     0.155000000
C     1.209000000     0.341000000    -0.309000000
H     2.188000000     0.755000000    -0.535000000
C     0.137000000     1.183000000    -0.373000000
H     0.120000000     2.233000000    -0.643000000
C    -1.120000000     0.663000000    -0.108000000
H    -2.035000000     1.239000000    -0.222000000
C    -1.277000000    -0.663000000     0.377000000
H    -2.256000000    -1.076000000     0.606000000
C    -0.116000000    -1.526000000     0.494000000
C    -0.331000000    -2.975000000     0.828000000
O    -1.417000000    -3.404000000     1.027000000
O     0.614000000    -3.755000000     1.015000000
