14
-87.65436
C     1.035000000    -1.064000000    -0.172000000
H     1.813000000    -1.814000000    -0.288000000
C     1.218000000     0.296000000    -0.424000000
H     2.161000000     0.693000000    -0.792000000
C     0.158000000     1.191000000    -0.307000000
H     0.213000000     2.187000000    -0.645000000
C    -1.061000000     0.743000000     0.270000000
H    -1.950000000     1.359000000     0.377000000
C    -1.146000000    -0.536000000     0.637000000
H    -2.072000000    -0.958000000     1.020000000
C    -0.132000000    -1.477000000     0.436000000
C    -0.360000000    -2.998000000     0.714000000
O    -1.432000000    -3.352000000     1.123000000
O     0.502000000    -3.834000000     0.476000000
