14
-90.42535
C     1.044000000    -0.995000000    -0.474000000
H     1.788000000    -1.623000000    -0.956000000
C     0.949000000     0.347000000    -0.779000000
H     1.813000000     0.808000000    -1.250000000
C    -0.040000000     1.171000000    -0.310000000
H     0.051000000     2.204000000    -0.515000000
C    -1.054000000     0.675000000     0.521000000
H    -1.891000000     1.308000000     0.805000000
C    -1.023000000    -0.708000000     0.799000000
H    -1.854000000    -1.195000000     1.303000000
C    -0.004000000    -1.526000000     0.327000000
C     0.109000000    -2.963000000     0.779000000
O    -0.864000000    -3.475000000     1.310000000
O     1.186000000    -3.517000000     0.703000000
