14
-87.22525
C     0.515000000    -1.414000000     0.138000000
H     0.974000000    -2.397000000     0.070000000
C     0.683000000    -0.568000000    -0.949000000
H     1.237000000    -0.885000000    -1.829000000
C     0.140000000     0.761000000    -0.922000000
H     0.213000000     1.347000000    -1.788000000
C    -0.557000000     1.159000000     0.139000000
H    -0.899000000     2.191000000     0.143000000
C    -0.726000000     0.355000000     1.270000000
H    -1.042000000     0.789000000     2.216000000
C    -0.294000000    -0.974000000     1.199000000
C    -0.559000000    -1.954000000     2.270000000
O    -1.203000000    -1.538000000     3.211000000
O     0.016000000    -3.040000000     2.206000000
