14
-88.40197
C     0.822000000    -1.167000000     0.192000000
H     1.517000000    -2.002000000     0.236000000
C     0.866000000    -0.323000000    -0.879000000
H     1.550000000    -0.572000000    -1.687000000
C    -0.010000000     0.737000000    -0.982000000
H     0.017000000     1.293000000    -1.919000000
C    -0.848000000     1.070000000     0.036000000
H    -1.568000000     1.864000000    -0.143000000
C    -0.824000000     0.235000000     1.206000000
H    -1.452000000     0.479000000     2.060000000
C     0.027000000    -0.863000000     1.307000000
C     0.057000000    -1.654000000     2.621000000
O    -0.598000000    -1.381000000     3.616000000
O     0.901000000    -2.529000000     2.710000000
