14
-85.86095
C     1.437000000    -0.227000000     0.286000000
H     2.503000000    -0.130000000     0.474000000
C     0.983000000     0.536000000    -0.778000000
H     1.710000000     0.936000000    -1.481000000
C    -0.394000000     0.642000000    -0.985000000
H    -0.638000000     1.315000000    -1.805000000
C    -1.294000000     0.074000000    -0.098000000
H    -2.341000000     0.364000000    -0.088000000
C    -0.872000000    -0.808000000     0.892000000
H    -1.540000000    -1.328000000     1.574000000
C     0.522000000    -0.943000000     1.116000000
C     1.098000000    -1.847000000     2.173000000
O     0.433000000    -2.785000000     2.587000000
O     2.190000000    -1.687000000     2.691000000
