14
-86.02004
C     1.333000000     0.429000000     0.371000000
H     2.278000000     0.927000000     0.572000000
C     0.810000000     0.445000000    -0.928000000
H     1.337000000     0.891000000    -1.767000000
C    -0.505000000     0.034000000    -1.140000000
H    -0.980000000     0.011000000    -2.168000000
C    -1.254000000    -0.556000000    -0.060000000
H    -2.275000000    -0.890000000    -0.223000000
C    -0.715000000    -0.562000000     1.219000000
H    -1.317000000    -1.032000000     1.993000000
C     0.603000000    -0.206000000     1.444000000
C     1.205000000    -0.115000000     2.826000000
O     0.546000000    -0.048000000     3.835000000
O     2.422000000    -0.149000000     2.918000000
