14
-84.52496
C     1.428000000     0.196000000    -0.273000000
H     2.450000000     0.384000000    -0.592000000
C     0.432000000     0.051000000    -1.208000000
H     0.594000000     0.099000000    -2.281000000
C    -0.880000000    -0.023000000    -0.818000000
H    -1.719000000    -0.014000000    -1.490000000
C    -1.233000000    -0.053000000     0.545000000
H    -2.284000000    -0.101000000     0.817000000
C    -0.224000000    -0.045000000     1.492000000
H    -0.538000000    -0.117000000     2.530000000
C     1.141000000     0.067000000     1.131000000
C     2.222000000     0.061000000     2.137000000
O     2.013000000     0.041000000     3.304000000
O     3.399000000     0.014000000     1.780000000
