14
-86.01577
C    -0.050000000     0.606000000    -1.366000000
H     0.014000000     0.974000000    -2.386000000
C    -0.216000000    -0.731000000    -1.063000000
H    -0.127000000    -1.462000000    -1.863000000
C    -0.195000000    -1.216000000     0.236000000
H    -0.174000000    -2.243000000     0.365000000
C    -0.021000000    -0.297000000     1.278000000
H     0.129000000    -0.618000000     2.306000000
C     0.111000000     1.102000000     1.016000000
H     0.141000000     1.773000000     1.871000000
C     0.116000000     1.477000000    -0.340000000
C     0.256000000     2.969000000    -0.650000000
O     0.695000000     3.738000000     0.178000000
O     0.126000000     3.334000000    -1.801000000
