14
-81.00220
C     0.956000000    -0.146000000    -1.126000000
H     1.508000000    -0.115000000    -2.062000000
C    -0.455000000    -0.410000000    -1.142000000
H    -0.943000000    -0.553000000    -2.103000000
C    -1.203000000    -0.270000000     0.009000000
H    -2.268000000    -0.390000000    -0.012000000
C    -0.594000000     0.144000000     1.162000000
H    -1.241000000     0.285000000     2.024000000
C     0.750000000     0.319000000     1.186000000
H     1.290000000     0.577000000     2.094000000
C     1.596000000     0.171000000     0.068000000
C     3.055000000     0.505000000     0.173000000
O     3.408000000     1.238000000     1.064000000
O     3.666000000     0.432000000    -0.852000000
