14
-88.26404
C     1.194000000    -0.276000000    -0.829000000
H     2.028000000    -0.517000000    -1.483000000
C    -0.001000000    -0.968000000    -0.940000000
H    -0.140000000    -1.758000000    -1.673000000
C    -1.049000000    -0.683000000    -0.061000000
H    -2.039000000    -1.162000000    -0.203000000
C    -0.847000000     0.323000000     0.818000000
H    -1.684000000     0.671000000     1.418000000
C     0.356000000     1.027000000     1.017000000
H     0.332000000     1.965000000     1.566000000
C     1.444000000     0.680000000     0.190000000
C     2.788000000     1.375000000     0.371000000
O     2.901000000     2.300000000     1.216000000
O     3.655000000     1.239000000    -0.495000000
