14
-84.06251
C     1.270000000    -0.534000000    -0.686000000
H     2.098000000    -0.908000000    -1.283000000
C    -0.043000000    -0.686000000    -1.119000000
H    -0.083000000    -1.023000000    -2.152000000
C    -1.186000000    -0.315000000    -0.371000000
H    -2.111000000    -0.560000000    -0.805000000
C    -0.953000000     0.415000000     0.788000000
H    -1.783000000     0.812000000     1.368000000
C     0.305000000     0.600000000     1.228000000
H     0.406000000     1.112000000     2.181000000
C     1.423000000     0.219000000     0.467000000
C     2.867000000     0.528000000     0.922000000
O     3.064000000     1.431000000     1.712000000
O     3.806000000    -0.043000000     0.432000000
