14
-88.77238
C     1.218000000    -0.906000000    -0.183000000
H     1.953000000    -1.705000000    -0.243000000
C    -0.075000000    -1.207000000    -0.564000000
H    -0.252000000    -2.170000000    -1.036000000
C    -1.110000000    -0.268000000    -0.392000000
H    -2.129000000    -0.343000000    -0.789000000
C    -0.905000000     0.875000000     0.335000000
H    -1.682000000     1.573000000     0.636000000
C     0.399000000     1.173000000     0.667000000
H     0.530000000     2.137000000     1.151000000
C     1.504000000     0.363000000     0.356000000
C     2.890000000     0.723000000     0.703000000
O     3.051000000     1.841000000     1.150000000
O     3.822000000    -0.036000000     0.385000000
