14
-88.38414
C     1.079000000    -0.986000000    -0.114000000
H     2.015000000    -1.524000000    -0.240000000
C     0.708000000    -0.392000000     1.101000000
H     1.432000000    -0.424000000     1.911000000
C    -0.471000000     0.321000000     1.126000000
H    -0.775000000     0.818000000     2.131000000
C    -1.120000000     0.600000000    -0.111000000
H    -1.989000000     1.252000000    -0.139000000
C    -0.680000000     0.101000000    -1.320000000
H    -1.166000000     0.364000000    -2.256000000
C     0.460000000    -0.679000000    -1.353000000
C     1.063000000    -1.094000000    -2.678000000
O     0.351000000    -1.076000000    -3.665000000
O     2.239000000    -1.385000000    -2.697000000
