14
-87.34751
C     0.702000000    -1.270000000     0.366000000
H     1.148000000    -2.154000000     0.814000000
C     0.705000000    -0.118000000     1.129000000
H     1.103000000    -0.049000000     2.139000000
C     0.069000000     1.057000000     0.670000000
H     0.106000000     2.047000000     1.240000000
C    -0.506000000     0.983000000    -0.590000000
H    -0.964000000     1.851000000    -1.057000000
C    -0.529000000    -0.167000000    -1.333000000
H    -1.212000000    -0.165000000    -2.178000000
C    -0.003000000    -1.327000000    -0.797000000
C    -0.163000000    -2.583000000    -1.640000000
O    -0.827000000    -2.619000000    -2.678000000
O     0.435000000    -3.605000000    -1.277000000
