14
-85.93014
C     0.099000000    -1.434000000     0.252000000
H     0.232000000    -2.489000000     0.481000000
C     0.033000000    -0.435000000     1.237000000
H     0.060000000    -0.874000000     2.231000000
C    -0.070000000     0.899000000     0.899000000
H    -0.209000000     1.724000000     1.597000000
C    -0.182000000     1.185000000    -0.496000000
H    -0.378000000     2.226000000    -0.741000000
C    -0.084000000     0.209000000    -1.464000000
H    -0.181000000     0.406000000    -2.529000000
C     0.165000000    -1.087000000    -1.093000000
C     0.273000000    -2.167000000    -2.107000000
O     0.502000000    -1.953000000    -3.291000000
O     0.011000000    -3.352000000    -1.838000000
