14
-80.55557
C     0.313000000    -1.340000000     0.549000000
H     0.396000000    -2.307000000     1.040000000
C     0.044000000    -0.233000000     1.386000000
H     0.009000000    -0.306000000     2.470000000
C    -0.163000000     0.987000000     0.726000000
H    -0.366000000     1.931000000     1.305000000
C    -0.126000000     1.107000000    -0.659000000
H    -0.255000000     2.087000000    -1.111000000
C     0.160000000    -0.037000000    -1.460000000
H     0.273000000     0.032000000    -2.539000000
C     0.353000000    -1.286000000    -0.860000000
C     0.530000000    -2.541000000    -1.740000000
O     0.580000000    -2.472000000    -2.972000000
O     0.356000000    -3.607000000    -1.307000000
