14
-84.69117
C     0.711000000    -1.294000000     0.046000000
H     1.074000000    -2.256000000     0.399000000
C     0.604000000    -0.409000000     1.088000000
H     1.090000000    -0.556000000     2.049000000
C    -0.173000000     0.742000000     0.952000000
H    -0.254000000     1.457000000     1.803000000
C    -0.789000000     1.011000000    -0.259000000
H    -1.349000000     1.936000000    -0.372000000
C    -0.526000000     0.179000000    -1.409000000
H    -0.972000000     0.445000000    -2.364000000
C     0.206000000    -1.006000000    -1.214000000
C     0.302000000    -1.955000000    -2.370000000
O     0.194000000    -1.527000000    -3.452000000
O     0.462000000    -3.159000000    -2.122000000
