14
-88.94190
C    -0.160000000    -1.486000000    -0.057000000
H    -0.163000000    -2.572000000    -0.028000000
C    -0.226000000    -0.727000000     1.103000000
H    -0.490000000    -1.226000000     2.032000000
C    -0.163000000     0.689000000     1.024000000
H    -0.127000000     1.305000000     1.973000000
C     0.051000000     1.271000000    -0.199000000
H     0.235000000     2.340000000    -0.138000000
C     0.306000000     0.495000000    -1.330000000
H     0.570000000     0.982000000    -2.265000000
C     0.170000000    -0.878000000    -1.227000000
C     0.339000000    -1.691000000    -2.467000000
O     0.123000000    -1.080000000    -3.493000000
O     0.513000000    -2.909000000    -2.362000000
