14
-87.30176
C    -1.044000000    -0.986000000     0.529000000
H    -1.786000000    -1.651000000     0.964000000
C     0.038000000    -0.467000000     1.295000000
H     0.261000000    -0.648000000     2.343000000
C     0.996000000     0.375000000     0.644000000
H     1.800000000     0.862000000     1.158000000
C     0.813000000     0.739000000    -0.655000000
H     1.520000000     1.398000000    -1.152000000
C    -0.255000000     0.181000000    -1.387000000
H    -0.345000000     0.309000000    -2.462000000
C    -1.214000000    -0.637000000    -0.845000000
C    -2.408000000    -1.110000000    -1.641000000
O    -2.617000000    -0.594000000    -2.704000000
O    -3.193000000    -1.915000000    -1.183000000
