14
-83.61238
C    -0.810000000    -1.135000000     0.427000000
H    -1.288000000    -2.019000000     0.841000000
C     0.416000000    -0.739000000     0.960000000
H     0.876000000    -1.253000000     1.800000000
C     1.099000000     0.406000000     0.482000000
H     2.056000000     0.833000000     0.848000000
C     0.424000000     1.133000000    -0.533000000
H     0.938000000     1.956000000    -1.024000000
C    -0.786000000     0.700000000    -1.089000000
H    -1.264000000     1.252000000    -1.895000000
C    -1.435000000    -0.406000000    -0.543000000
C    -2.764000000    -0.836000000    -1.121000000
O    -3.237000000    -0.144000000    -2.020000000
O    -3.002000000    -2.018000000    -1.086000000
