14
-89.26766
C    -1.092000000    -0.714000000     0.559000000
H    -1.903000000    -1.302000000     0.982000000
C    -0.393000000     0.309000000     1.229000000
H    -0.674000000     0.447000000     2.270000000
C     0.612000000     0.945000000     0.537000000
H     1.209000000     1.701000000     1.033000000
C     0.936000000     0.539000000    -0.756000000
H     1.792000000     0.891000000    -1.327000000
C     0.269000000    -0.552000000    -1.371000000
H     0.528000000    -0.787000000    -2.400000000
C    -0.814000000    -1.141000000    -0.760000000
C    -1.663000000    -2.129000000    -1.483000000
O    -1.358000000    -2.490000000    -2.594000000
O    -2.615000000    -2.630000000    -0.886000000
