14
-85.60698
C    -1.372000000    -0.389000000     0.363000000
H    -2.337000000    -0.735000000     0.722000000
C    -0.496000000     0.261000000     1.214000000
H    -0.793000000     0.484000000     2.236000000
C     0.839000000     0.493000000     0.819000000
H     1.496000000     1.023000000     1.529000000
C     1.134000000     0.226000000    -0.526000000
H     2.090000000     0.533000000    -0.942000000
C     0.208000000    -0.311000000    -1.417000000
H     0.578000000    -0.310000000    -2.439000000
C    -1.037000000    -0.715000000    -0.963000000
C    -1.921000000    -1.382000000    -2.002000000
O    -1.422000000    -2.099000000    -2.858000000
O    -3.120000000    -1.525000000    -1.715000000
