14
-90.13853
C    -1.282000000     0.181000000     0.683000000
H    -2.184000000     0.208000000     1.289000000
C    -0.079000000     0.742000000     1.114000000
H    -0.036000000     1.133000000     2.127000000
C     1.068000000     0.548000000     0.329000000
H     2.037000000     0.906000000     0.721000000
C     0.995000000    -0.184000000    -0.866000000
H     1.848000000    -0.289000000    -1.531000000
C    -0.261000000    -0.675000000    -1.267000000
H    -0.344000000    -1.239000000    -2.193000000
C    -1.425000000    -0.555000000    -0.488000000
C    -2.688000000    -1.292000000    -0.789000000
O    -2.719000000    -2.145000000    -1.649000000
O    -3.699000000    -1.111000000    -0.110000000
