14
-83.56684
C    -1.180000000    -0.600000000     0.631000000
H    -1.950000000    -1.149000000     1.167000000
C    -0.078000000    -0.049000000     1.351000000
H     0.015000000    -0.006000000     2.434000000
C     0.972000000     0.438000000     0.588000000
H     1.787000000     0.994000000     1.115000000
C     0.917000000     0.422000000    -0.780000000
H     1.770000000     0.886000000    -1.270000000
C    -0.147000000    -0.115000000    -1.479000000
H    -0.120000000    -0.237000000    -2.559000000
C    -1.281000000    -0.552000000    -0.762000000
C    -2.408000000    -1.165000000    -1.482000000
O    -2.389000000    -1.439000000    -2.662000000
O    -3.483000000    -1.317000000    -0.923000000
