14
-83.55809
C    -1.213000000    -0.616000000     0.679000000
H    -2.087000000    -0.915000000     1.251000000
C     0.018000000    -0.375000000     1.237000000
H     0.218000000    -0.527000000     2.294000000
C     1.078000000     0.270000000     0.612000000
H     1.934000000     0.559000000     1.179000000
C     0.904000000     0.548000000    -0.783000000
H     1.679000000     0.949000000    -1.430000000
C    -0.316000000     0.284000000    -1.403000000
H    -0.424000000     0.508000000    -2.461000000
C    -1.365000000    -0.397000000    -0.650000000
C    -2.662000000    -0.641000000    -1.336000000
O    -2.782000000    -0.222000000    -2.478000000
O    -3.655000000    -1.001000000    -0.732000000
