14
-92.75742
C    -0.859000000    -1.182000000    -0.080000000
H    -1.368000000    -2.136000000     0.029000000
C    -0.280000000    -0.623000000     1.092000000
H    -0.453000000    -1.128000000     2.039000000
C     0.489000000     0.503000000     1.035000000
H     0.898000000     0.924000000     1.957000000
C     0.745000000     1.126000000    -0.194000000
H     1.293000000     2.065000000    -0.233000000
C     0.171000000     0.554000000    -1.342000000
H     0.345000000     0.975000000    -2.329000000
C    -0.661000000    -0.560000000    -1.321000000
C    -1.308000000    -1.176000000    -2.594000000
O    -1.245000000    -0.573000000    -3.616000000
O    -1.855000000    -2.281000000    -2.501000000
