14
-89.89548
C     0.582000000    -0.631000000    -1.183000000
H     1.250000000    -1.113000000    -1.892000000
C     1.091000000    -0.733000000     0.106000000
H     1.941000000    -1.374000000     0.323000000
C     0.418000000    -0.040000000     1.153000000
H     0.877000000    -0.079000000     2.113000000
C    -0.728000000     0.639000000     0.887000000
H    -1.324000000     0.972000000     1.733000000
C    -1.256000000     0.681000000    -0.400000000
H    -2.205000000     1.199000000    -0.508000000
C    -0.486000000     0.165000000    -1.487000000
C    -0.836000000     0.379000000    -2.981000000
O    -2.017000000     0.606000000    -3.245000000
O     0.086000000     0.419000000    -3.806000000
