14
-89.13129
C     0.912000000    -0.737000000    -0.940000000
H     1.606000000    -1.315000000    -1.546000000
C     1.220000000    -0.473000000     0.413000000
H     2.115000000    -0.874000000     0.883000000
C     0.297000000     0.202000000     1.174000000
H     0.449000000     0.268000000     2.271000000
C    -0.783000000     0.823000000     0.562000000
H    -1.427000000     1.468000000     1.155000000
C    -1.137000000     0.496000000    -0.740000000
H    -2.088000000     0.842000000    -1.136000000
C    -0.278000000    -0.246000000    -1.536000000
C    -0.711000000    -0.571000000    -2.979000000
O    -1.827000000    -0.289000000    -3.332000000
O     0.051000000    -1.165000000    -3.676000000
