14
-87.23048
C     0.311000000    -1.403000000    -0.326000000
H     0.458000000    -2.480000000    -0.364000000
C     0.655000000    -0.722000000     0.856000000
H     1.183000000    -1.242000000     1.651000000
C     0.326000000     0.613000000     0.990000000
H     0.584000000     1.056000000     1.982000000
C    -0.292000000     1.241000000    -0.032000000
H    -0.461000000     2.293000000     0.183000000
C    -0.725000000     0.576000000    -1.144000000
H    -1.294000000     1.144000000    -1.875000000
C    -0.402000000    -0.807000000    -1.337000000
C    -0.867000000    -1.495000000    -2.598000000
O    -1.749000000    -0.932000000    -3.202000000
O    -0.501000000    -2.631000000    -2.896000000
