14
-79.69069
C     0.819000000    -0.107000000    -1.168000000
H     1.497000000    -0.239000000    -2.006000000
C     1.254000000    -0.154000000     0.153000000
H     2.303000000    -0.297000000     0.403000000
C     0.370000000     0.049000000     1.194000000
H     0.728000000     0.157000000     2.252000000
C    -0.964000000     0.256000000     0.870000000
H    -1.642000000     0.345000000     1.715000000
C    -1.415000000     0.249000000    -0.461000000
H    -2.474000000     0.356000000    -0.682000000
C    -0.519000000     0.037000000    -1.475000000
C    -0.840000000    -0.017000000    -2.960000000
O    -1.989000000     0.003000000    -3.344000000
O    -0.073000000    -0.517000000    -3.753000000
