14
-84.70886
C     1.048000000    -0.019000000    -1.082000000
H     1.824000000     0.064000000    -1.839000000
C     1.214000000     0.288000000     0.280000000
H     2.210000000     0.587000000     0.597000000
C     0.233000000     0.295000000     1.226000000
H     0.430000000     0.632000000     2.261000000
C    -1.034000000     0.006000000     0.771000000
H    -1.934000000     0.114000000     1.370000000
C    -1.304000000    -0.336000000    -0.562000000
H    -2.291000000    -0.642000000    -0.899000000
C    -0.279000000    -0.244000000    -1.493000000
C    -0.528000000    -0.479000000    -2.958000000
O    -1.632000000    -0.473000000    -3.388000000
O     0.403000000    -0.857000000    -3.650000000
