14
-82.66305
C     1.093000000    -0.034000000    -1.021000000
H     1.896000000     0.173000000    -1.724000000
C     1.204000000     0.419000000     0.313000000
H     2.039000000     0.978000000     0.728000000
C     0.155000000     0.219000000     1.214000000
H     0.274000000     0.390000000     2.270000000
C    -1.075000000    -0.287000000     0.768000000
H    -1.818000000    -0.351000000     1.558000000
C    -1.227000000    -0.539000000    -0.583000000
H    -2.174000000    -0.884000000    -0.989000000
C    -0.196000000    -0.441000000    -1.498000000
C    -0.450000000    -0.496000000    -3.005000000
O    -1.493000000    -0.931000000    -3.441000000
O     0.428000000    -0.312000000    -3.844000000
