14
-85.97606
C     1.125000000    -0.020000000    -0.871000000
H     2.056000000     0.132000000    -1.410000000
C     1.149000000     0.392000000     0.492000000
H     2.096000000     0.667000000     0.948000000
C    -0.052000000     0.313000000     1.183000000
H    -0.078000000     0.538000000     2.306000000
C    -1.248000000    -0.051000000     0.560000000
H    -2.113000000    -0.155000000     1.209000000
C    -1.217000000    -0.480000000    -0.773000000
H    -2.155000000    -0.825000000    -1.201000000
C    -0.023000000    -0.477000000    -1.531000000
C     0.010000000    -0.748000000    -3.020000000
O    -1.009000000    -1.160000000    -3.489000000
O     1.004000000    -0.628000000    -3.665000000
