14
-88.88405
C     0.857000000    -1.170000000    -0.296000000
H     1.609000000    -1.941000000    -0.443000000
C     0.803000000    -0.430000000     0.874000000
H     1.466000000    -0.665000000     1.703000000
C     0.014000000     0.707000000     1.058000000
H     0.021000000     1.327000000     1.988000000
C    -0.813000000     1.010000000    -0.003000000
H    -1.380000000     1.935000000     0.064000000
C    -0.877000000     0.267000000    -1.193000000
H    -1.559000000     0.577000000    -1.981000000
C    -0.023000000    -0.858000000    -1.380000000
C    -0.047000000    -1.727000000    -2.586000000
O    -0.785000000    -1.300000000    -3.485000000
O     0.600000000    -2.716000000    -2.689000000
