14
-89.08807
C     0.677000000    -1.121000000    -0.688000000
H     1.279000000    -1.888000000    -1.167000000
C     0.968000000    -0.724000000     0.605000000
H     1.837000000    -1.112000000     1.130000000
C     0.188000000     0.274000000     1.163000000
H     0.369000000     0.579000000     2.178000000
C    -0.822000000     0.968000000     0.500000000
H    -1.400000000     1.777000000     0.941000000
C    -1.100000000     0.533000000    -0.830000000
H    -1.887000000     1.086000000    -1.337000000
C    -0.325000000    -0.448000000    -1.455000000
C    -0.632000000    -0.833000000    -2.907000000
O    -1.090000000     0.081000000    -3.528000000
O    -0.275000000    -1.879000000    -3.415000000
