14
-83.64242
C     0.063000000    -1.475000000    -0.365000000
H     0.121000000    -2.548000000    -0.532000000
C     0.621000000    -0.889000000     0.858000000
H     1.087000000    -1.470000000     1.650000000
C     0.476000000     0.489000000     1.072000000
H     0.846000000     0.938000000     1.921000000
C    -0.276000000     1.240000000     0.185000000
H    -0.350000000     2.303000000     0.399000000
C    -0.870000000     0.655000000    -0.966000000
H    -1.501000000     1.288000000    -1.584000000
C    -0.610000000    -0.678000000    -1.283000000
C    -1.266000000    -1.336000000    -2.537000000
O    -1.898000000    -0.676000000    -3.328000000
O    -0.990000000    -2.460000000    -2.841000000
