14
-94.17892
C     0.572000000    -1.208000000    -0.636000000
H     1.031000000    -2.127000000    -0.992000000
C     0.643000000    -0.924000000     0.726000000
H     1.169000000    -1.596000000     1.400000000
C     0.060000000     0.286000000     1.219000000
H     0.021000000     0.496000000     2.294000000
C    -0.555000000     1.163000000     0.313000000
H    -1.035000000     2.079000000     0.647000000
C    -0.685000000     0.801000000    -1.037000000
H    -1.187000000     1.439000000    -1.760000000
C    -0.048000000    -0.321000000    -1.493000000
C    -0.075000000    -0.706000000    -2.982000000
O    -0.437000000     0.130000000    -3.850000000
O     0.319000000    -1.809000000    -3.252000000
