14
-81.60386
C     0.014000000    -1.337000000    -0.544000000
H     0.345000000    -2.299000000    -0.929000000
C     0.690000000    -0.873000000     0.551000000
H     1.444000000    -1.534000000     0.970000000
C     0.530000000     0.354000000     1.051000000
H     1.145000000     0.753000000     1.850000000
C    -0.216000000     1.242000000     0.278000000
H    -0.347000000     2.244000000     0.678000000
C    -0.886000000     0.825000000    -0.841000000
H    -1.638000000     1.515000000    -1.215000000
C    -0.719000000    -0.503000000    -1.351000000
C    -1.412000000    -0.909000000    -2.651000000
O    -2.077000000    -0.074000000    -3.230000000
O    -1.420000000    -2.072000000    -2.993000000
