14
-87.53856
C     0.278000000    -1.134000000    -0.960000000
H     0.580000000    -1.985000000    -1.565000000
C     0.907000000    -0.982000000     0.299000000
H     1.704000000    -1.666000000     0.580000000
C     0.577000000     0.115000000     1.079000000
H     1.041000000     0.358000000     2.110000000
C    -0.479000000     0.978000000     0.697000000
H    -0.758000000     1.781000000     1.374000000
C    -1.058000000     0.780000000    -0.538000000
H    -1.824000000     1.490000000    -0.842000000
C    -0.762000000    -0.220000000    -1.411000000
C    -1.396000000    -0.330000000    -2.771000000
O    -2.043000000     0.622000000    -3.162000000
O    -1.384000000    -1.372000000    -3.428000000
