14
-92.36192
C     0.498000000     0.333000000    -1.355000000
H     0.875000000     0.659000000    -2.320000000
C     1.305000000     0.222000000    -0.228000000
H     2.348000000     0.520000000    -0.307000000
C     0.682000000    -0.104000000     0.994000000
H     1.183000000    -0.100000000     1.984000000
C    -0.678000000    -0.285000000     1.076000000
H    -1.103000000    -0.531000000     2.046000000
C    -1.434000000    -0.298000000    -0.072000000
H    -2.471000000    -0.615000000     0.014000000
C    -0.874000000     0.104000000    -1.277000000
C    -1.710000000     0.199000000    -2.517000000
O    -2.955000000     0.123000000    -2.432000000
O    -1.169000000     0.278000000    -3.626000000
