14
-89.14276
C     0.195000000    -0.191000000    -1.471000000
H     0.398000000    -0.411000000    -2.516000000
C     1.229000000     0.029000000    -0.537000000
H     2.276000000     0.065000000    -0.827000000
C     0.885000000     0.200000000     0.776000000
H     1.652000000     0.258000000     1.502000000
C    -0.447000000     0.040000000     1.214000000
H    -0.692000000     0.257000000     2.250000000
C    -1.429000000    -0.246000000     0.310000000
H    -2.470000000    -0.153000000     0.610000000
C    -1.106000000    -0.312000000    -1.058000000
C    -2.172000000    -0.310000000    -2.137000000
O    -3.237000000    -0.838000000    -1.765000000
O    -2.033000000     0.272000000    -3.181000000
