14
-82.75928
C     0.878000000    -0.081000000    -1.200000000
H     1.640000000    -0.125000000    -1.974000000
C     1.339000000    -0.177000000     0.109000000
H     2.394000000    -0.334000000     0.322000000
C     0.385000000    -0.086000000     1.186000000
H     0.752000000    -0.143000000     2.217000000
C    -0.926000000     0.167000000     0.864000000
H    -1.605000000     0.239000000     1.710000000
C    -1.370000000     0.269000000    -0.464000000
H    -2.412000000     0.511000000    -0.657000000
C    -0.484000000     0.170000000    -1.518000000
C    -1.019000000     0.261000000    -2.976000000
O    -2.108000000     0.634000000    -3.179000000
O    -0.293000000    -0.006000000    -3.871000000
