14
-87.62594
C     1.250000000     0.635000000    -0.571000000
H     2.183000000     0.958000000    -1.025000000
C     1.269000000    -0.153000000     0.635000000
H     2.211000000    -0.491000000     1.061000000
C     0.011000000    -0.544000000     1.136000000
H     0.041000000    -1.215000000     1.944000000
C    -1.166000000    -0.280000000     0.393000000
H    -2.157000000    -0.612000000     0.692000000
C    -1.153000000     0.465000000    -0.799000000
H    -2.053000000     0.670000000    -1.373000000
C     0.100000000     0.921000000    -1.229000000
C     0.118000000     1.600000000    -2.620000000
O    -0.934000000     1.904000000    -3.114000000
O     1.163000000     1.904000000    -3.198000000
