14
-88.91633
C     1.446000000     0.269000000    -0.194000000
H     2.491000000     0.545000000    -0.072000000
C     0.860000000    -0.764000000     0.637000000
H     1.498000000    -1.457000000     1.179000000
C    -0.539000000    -0.861000000     0.719000000
H    -1.067000000    -1.598000000     1.411000000
C    -1.358000000    -0.020000000    -0.037000000
H    -2.435000000    -0.164000000    -0.019000000
C    -0.751000000     0.999000000    -0.746000000
H    -1.443000000     1.641000000    -1.286000000
C     0.636000000     1.185000000    -0.880000000
C     1.310000000     2.280000000    -1.637000000
O     0.573000000     3.124000000    -2.193000000
O     2.512000000     2.224000000    -1.866000000
