14
-73.21065
C     1.275000000    -0.131000000    -0.720000000
H     2.319000000    -0.192000000    -1.016000000
C     0.944000000    -0.789000000     0.491000000
H     1.716000000    -1.223000000     1.121000000
C    -0.318000000    -0.643000000     1.020000000
H    -0.573000000    -1.194000000     1.943000000
C    -1.255000000     0.044000000     0.309000000
H    -2.304000000     0.037000000     0.594000000
C    -0.955000000     0.635000000    -0.942000000
H    -1.708000000     1.247000000    -1.431000000
C     0.344000000     0.573000000    -1.457000000
C     0.792000000     1.320000000    -2.724000000
O     0.199000000     2.333000000    -2.988000000
O     1.833000000     1.227000000    -3.261000000
