14
-88.75325
C     1.306000000     0.430000000    -0.618000000
H     2.308000000     0.792000000    -0.833000000
C     1.170000000    -0.391000000     0.529000000
H     1.946000000    -0.704000000     1.223000000
C    -0.115000000    -0.771000000     0.938000000
H    -0.234000000    -1.178000000     1.924000000
C    -1.250000000    -0.312000000     0.291000000
H    -2.225000000    -0.481000000     0.741000000
C    -1.150000000     0.500000000    -0.865000000
H    -2.017000000     0.954000000    -1.337000000
C     0.110000000     0.920000000    -1.282000000
C     0.242000000     1.826000000    -2.470000000
O    -0.755000000     2.363000000    -2.966000000
O     1.370000000     2.134000000    -2.869000000
