14
-85.20644
C     1.042000000     1.074000000    -0.047000000
H     1.923000000     1.682000000    -0.232000000
C     1.154000000    -0.098000000     0.759000000
H     2.084000000    -0.353000000     1.261000000
C    -0.005000000    -0.979000000     0.768000000
H    -0.014000000    -1.888000000     1.359000000
C    -1.177000000    -0.532000000     0.147000000
H    -2.056000000    -1.163000000     0.246000000
C    -1.209000000     0.582000000    -0.673000000
H    -2.124000000     0.830000000    -1.204000000
C    -0.118000000     1.422000000    -0.745000000
C    -0.182000000     2.519000000    -1.770000000
O    -1.141000000     2.691000000    -2.407000000
O     0.824000000     3.260000000    -1.821000000
