14
-86.76795
C     1.138000000    -0.073000000     1.015000000
H     1.901000000    -0.197000000     1.780000000
C     0.014000000    -0.890000000     1.068000000
H    -0.088000000    -1.683000000     1.803000000
C    -0.959000000    -0.704000000     0.087000000
H    -1.846000000    -1.403000000     0.067000000
C    -0.839000000     0.222000000    -0.964000000
H    -1.628000000     0.214000000    -1.711000000
C     0.137000000     1.169000000    -0.853000000
H     0.111000000     2.016000000    -1.534000000
C     1.157000000     1.058000000     0.091000000
C     2.395000000     1.934000000    -0.067000000
O     2.333000000     3.087000000    -0.515000000
O     3.454000000     1.535000000     0.389000000
