14
-86.98330
C     0.351000000     1.076000000     0.968000000
H     0.433000000     1.692000000     1.860000000
C     0.481000000    -0.298000000     1.198000000
H     0.750000000    -0.644000000     2.193000000
C     0.197000000    -1.210000000     0.213000000
H     0.317000000    -2.341000000     0.348000000
C    -0.195000000    -0.764000000    -1.052000000
H    -0.260000000    -1.538000000    -1.813000000
C    -0.363000000     0.611000000    -1.331000000
H    -0.685000000     0.951000000    -2.312000000
C    -0.175000000     1.560000000    -0.275000000
C    -0.501000000     3.007000000    -0.533000000
O    -1.060000000     3.416000000    -1.556000000
O    -0.479000000     3.776000000     0.456000000
