14
-90.38248
C     1.207000000     0.771000000     0.367000000
H     2.011000000     1.361000000     0.798000000
C     0.520000000    -0.141000000     1.213000000
H     0.814000000    -0.259000000     2.253000000
C    -0.581000000    -0.840000000     0.731000000
H    -1.027000000    -1.648000000     1.364000000
C    -0.936000000    -0.660000000    -0.587000000
H    -1.819000000    -1.123000000    -1.021000000
C    -0.261000000     0.240000000    -1.441000000
H    -0.445000000     0.184000000    -2.511000000
C     0.803000000     0.988000000    -0.929000000
C     1.440000000     2.072000000    -1.704000000
O     1.136000000     2.208000000    -2.872000000
O     2.199000000     2.871000000    -1.139000000
