14
-85.91959
C     0.882000000     1.142000000    -0.283000000
H     1.600000000     1.957000000    -0.298000000
C     0.754000000     0.513000000     0.961000000
H     1.399000000     0.830000000     1.776000000
C    -0.095000000    -0.591000000     1.115000000
H    -0.114000000    -1.062000000     2.040000000
C    -0.948000000    -0.862000000     0.051000000
H    -1.656000000    -1.650000000     0.299000000
C    -0.913000000    -0.160000000    -1.174000000
H    -1.650000000    -0.275000000    -1.965000000
C     0.009000000     0.829000000    -1.369000000
C     0.098000000     1.395000000    -2.767000000
O    -0.501000000     0.966000000    -3.771000000
O     1.070000000     2.156000000    -2.911000000
