14
-86.55449
C     0.211000000     1.397000000    -0.436000000
H     0.406000000     2.432000000    -0.703000000
C     0.216000000     0.944000000     0.895000000
H     0.292000000     1.614000000     1.747000000
C    -0.003000000    -0.386000000     1.164000000
H     0.025000000    -0.690000000     2.205000000
C    -0.187000000    -1.334000000     0.202000000
H    -0.268000000    -2.387000000     0.460000000
C    -0.215000000    -0.891000000    -1.130000000
H    -0.317000000    -1.595000000    -1.952000000
C    -0.069000000     0.462000000    -1.485000000
C    -0.003000000     0.921000000    -2.923000000
O     0.006000000     0.070000000    -3.755000000
O     0.033000000     2.095000000    -3.313000000
