14
-82.97883
C     0.288000000     1.204000000    -0.736000000
H     0.612000000     2.169000000    -1.117000000
C     0.572000000     0.919000000     0.545000000
H     0.944000000     1.748000000     1.142000000
C     0.372000000    -0.319000000     1.078000000
H     0.574000000    -0.605000000     2.153000000
C    -0.243000000    -1.296000000     0.327000000
H    -0.477000000    -2.243000000     0.808000000
C    -0.525000000    -1.011000000    -0.988000000
H    -1.083000000    -1.706000000    -1.609000000
C    -0.339000000     0.274000000    -1.562000000
C    -0.781000000     0.676000000    -2.911000000
O    -1.230000000    -0.194000000    -3.627000000
O    -0.966000000     1.862000000    -3.089000000
