14
-77.63695
C    -0.211000000     1.172000000    -0.815000000
H    -0.270000000     2.037000000    -1.470000000
C     0.419000000     1.181000000     0.341000000
H     0.952000000     2.060000000     0.696000000
C     0.504000000     0.055000000     1.100000000
H     0.980000000     0.021000000     2.032000000
C    -0.087000000    -1.159000000     0.657000000
H    -0.091000000    -2.014000000     1.329000000
C    -0.753000000    -1.171000000    -0.549000000
H    -1.400000000    -1.997000000    -0.835000000
C    -0.779000000    -0.011000000    -1.338000000
C    -1.334000000    -0.025000000    -2.713000000
O    -1.828000000    -0.999000000    -3.181000000
O    -1.313000000     0.996000000    -3.308000000
