14
-84.72876
C    -0.622000000     0.172000000     1.317000000
H    -1.046000000     0.316000000     2.308000000
C     0.360000000    -0.764000000     1.012000000
H     0.840000000    -1.344000000     1.796000000
C     0.779000000    -0.853000000    -0.307000000
H     1.493000000    -1.606000000    -0.558000000
C     0.339000000     0.008000000    -1.303000000
H     0.808000000     0.024000000    -2.284000000
C    -0.663000000     0.914000000    -0.993000000
H    -0.929000000     1.600000000    -1.794000000
C    -1.086000000     1.052000000     0.329000000
C    -2.050000000     2.201000000     0.722000000
O    -2.287000000     2.977000000    -0.130000000
O    -2.337000000     2.386000000     1.863000000
