14
-83.89200
C    -0.381000000     1.457000000    -0.221000000
H    -0.536000000     2.533000000    -0.209000000
C    -0.551000000     0.719000000     0.988000000
H    -0.888000000     1.177000000     1.914000000
C    -0.114000000    -0.581000000     1.071000000
H    -0.195000000    -1.096000000     2.038000000
C     0.429000000    -1.190000000    -0.062000000
H     0.819000000    -2.197000000     0.059000000
C     0.520000000    -0.537000000    -1.282000000
H     0.780000000    -1.017000000    -2.222000000
C     0.211000000     0.807000000    -1.331000000
C     0.284000000     1.565000000    -2.639000000
O     0.554000000     0.933000000    -3.619000000
O     0.069000000     2.758000000    -2.821000000
