14
-87.99530
C     0.400000000     1.362000000    -0.495000000
H     0.664000000     2.380000000    -0.769000000
C     0.543000000     0.880000000     0.795000000
H     1.007000000     1.465000000     1.585000000
C     0.203000000    -0.412000000     1.180000000
H     0.237000000    -0.755000000     2.209000000
C    -0.356000000    -1.265000000     0.169000000
H    -0.641000000    -2.291000000     0.392000000
C    -0.496000000    -0.795000000    -1.141000000
H    -0.888000000    -1.542000000    -1.827000000
C    -0.123000000     0.521000000    -1.490000000
C    -0.373000000     1.112000000    -2.859000000
O    -0.631000000     0.422000000    -3.811000000
O    -0.214000000     2.308000000    -3.064000000
