14
-85.24994
C    -0.269000000     1.440000000     0.063000000
H    -0.426000000     2.509000000     0.182000000
C    -0.246000000     0.574000000     1.147000000
H    -0.470000000     0.965000000     2.136000000
C     0.013000000    -0.745000000     0.984000000
H     0.015000000    -1.421000000     1.830000000
C     0.345000000    -1.180000000    -0.284000000
H     0.494000000    -2.253000000    -0.373000000
C     0.304000000    -0.379000000    -1.374000000
H     0.405000000    -0.743000000    -2.393000000
C    -0.010000000     0.976000000    -1.262000000
C    -0.037000000     1.865000000    -2.435000000
O    -0.303000000     1.385000000    -3.516000000
O     0.402000000     3.019000000    -2.425000000
