14
-91.38196
C     0.740000000     1.229000000    -0.399000000
H     1.358000000     2.094000000    -0.629000000
C     0.794000000     0.657000000     0.880000000
H     1.376000000     1.057000000     1.707000000
C    -0.002000000    -0.489000000     1.165000000
H    -0.032000000    -0.858000000     2.128000000
C    -0.670000000    -1.111000000     0.096000000
H    -1.266000000    -1.997000000     0.297000000
C    -0.685000000    -0.553000000    -1.206000000
H    -1.307000000    -1.010000000    -1.972000000
C     0.013000000     0.623000000    -1.432000000
C     0.055000000     1.234000000    -2.869000000
O    -0.503000000     0.724000000    -3.802000000
O     0.649000000     2.291000000    -3.008000000
