14
-84.27381
C     0.513000000     0.745000000    -1.202000000
H     0.852000000     1.398000000    -2.003000000
C     1.274000000     0.492000000    -0.032000000
H     2.290000000     0.833000000     0.149000000
C     0.683000000    -0.212000000     1.016000000
H     1.226000000    -0.420000000     1.935000000
C    -0.613000000    -0.810000000     0.890000000
H    -1.011000000    -1.545000000     1.584000000
C    -1.336000000    -0.548000000    -0.261000000
H    -2.312000000    -0.995000000    -0.434000000
C    -0.841000000     0.285000000    -1.314000000
C    -1.775000000     0.725000000    -2.530000000
O    -2.821000000     0.183000000    -2.713000000
O    -1.376000000     1.564000000    -3.267000000
