14
-89.19953
C     0.945000000    -0.068000000    -1.184000000
H     1.643000000    -0.268000000    -1.992000000
C     1.327000000    -0.204000000     0.131000000
H     2.297000000    -0.617000000     0.397000000
C     0.385000000    -0.152000000     1.130000000
H     0.604000000    -0.421000000     2.154000000
C    -0.912000000     0.178000000     0.879000000
H    -1.653000000     0.152000000     1.674000000
C    -1.271000000     0.364000000    -0.470000000
H    -2.310000000     0.620000000    -0.658000000
C    -0.346000000     0.315000000    -1.490000000
C    -0.890000000     0.494000000    -2.930000000
O    -1.950000000     1.095000000    -3.034000000
O    -0.317000000     0.080000000    -3.932000000
