14
-86.35441
C     0.437000000     0.050000000    -1.398000000
H     0.818000000     0.004000000    -2.414000000
C     1.286000000     0.020000000    -0.389000000
H     2.360000000    -0.023000000    -0.555000000
C     0.741000000    -0.044000000     0.911000000
H     1.497000000    -0.014000000     1.739000000
C    -0.615000000     0.066000000     1.164000000
H    -1.011000000     0.094000000     2.176000000
C    -1.493000000     0.084000000     0.078000000
H    -2.564000000     0.138000000     0.259000000
C    -0.935000000    -0.067000000    -1.221000000
C    -1.857000000    -0.150000000    -2.408000000
O    -3.068000000     0.006000000    -2.194000000
O    -1.465000000    -0.412000000    -3.517000000
