14
-87.47788
C     0.266000000    -0.210000000    -1.423000000
H     0.601000000    -0.630000000    -2.367000000
C     1.220000000    -0.041000000    -0.431000000
H     2.251000000    -0.145000000    -0.760000000
C     0.864000000     0.258000000     0.853000000
H     1.653000000     0.353000000     1.601000000
C    -0.475000000     0.375000000     1.115000000
H    -0.791000000     0.575000000     2.136000000
C    -1.510000000     0.208000000     0.154000000
H    -2.577000000     0.277000000     0.349000000
C    -1.088000000    -0.106000000    -1.143000000
C    -2.127000000    -0.501000000    -2.177000000
O    -3.154000000    -0.914000000    -1.701000000
O    -1.899000000    -0.531000000    -3.356000000
