14
-81.17238
C    -0.604000000    -0.572000000    -1.272000000
H    -1.150000000    -1.055000000    -2.078000000
C     0.665000000    -0.818000000    -0.916000000
H     1.269000000    -1.541000000    -1.460000000
C     1.148000000    -0.209000000     0.274000000
H     2.168000000    -0.287000000     0.500000000
C     0.360000000     0.626000000     1.012000000
H     0.875000000     0.965000000     1.907000000
C    -0.915000000     0.905000000     0.624000000
H    -1.542000000     1.527000000     1.258000000
C    -1.449000000     0.258000000    -0.530000000
C    -2.836000000     0.557000000    -0.891000000
O    -3.656000000     0.586000000     0.009000000
O    -3.104000000     1.074000000    -1.968000000
