14
-87.54596
C    -0.446000000    -1.214000000    -0.674000000
H    -0.626000000    -2.208000000    -1.076000000
C     0.858000000    -0.827000000    -0.541000000
H     1.618000000    -1.467000000    -0.981000000
C     1.108000000     0.444000000     0.002000000
H     2.142000000     0.785000000    -0.055000000
C     0.098000000     1.185000000     0.544000000
H     0.426000000     2.066000000     1.090000000
C    -1.234000000     0.767000000     0.472000000
H    -2.012000000     1.328000000     0.982000000
C    -1.508000000    -0.410000000    -0.214000000
C    -2.898000000    -0.916000000    -0.230000000
O    -3.598000000    -0.480000000     0.652000000
O    -3.353000000    -1.714000000    -1.045000000
