14
-93.13157
C    -0.234000000    -1.241000000    -0.830000000
H    -0.419000000    -2.030000000    -1.554000000
C     0.768000000    -0.276000000    -1.041000000
H     1.395000000    -0.344000000    -1.927000000
C     0.895000000     0.845000000    -0.198000000
H     1.660000000     1.498000000    -0.483000000
C     0.013000000     0.959000000     0.870000000
H     0.116000000     1.794000000     1.558000000
C    -0.882000000    -0.059000000     1.185000000
H    -1.428000000    -0.078000000     2.126000000
C    -1.048000000    -1.132000000     0.297000000
C    -2.077000000    -2.271000000     0.579000000
O    -2.850000000    -2.131000000     1.526000000
O    -2.094000000    -3.226000000    -0.146000000
