14
-91.67722
C     0.126000000    -1.460000000    -0.116000000
H     0.409000000    -2.507000000    -0.194000000
C     0.757000000    -0.496000000    -0.922000000
H     1.392000000    -0.890000000    -1.712000000
C     0.591000000     0.835000000    -0.674000000
H     1.014000000     1.602000000    -1.282000000
C    -0.378000000     1.239000000     0.242000000
H    -0.642000000     2.291000000     0.317000000
C    -1.014000000     0.268000000     1.048000000
H    -1.703000000     0.627000000     1.808000000
C    -0.708000000    -1.103000000     0.905000000
C    -1.284000000    -2.133000000     1.845000000
O    -2.075000000    -1.746000000     2.676000000
O    -0.925000000    -3.305000000     1.784000000
