14
-72.40162
C    -0.223000000    -1.323000000    -0.695000000
H    -0.231000000    -2.284000000    -1.205000000
C     0.591000000    -0.290000000    -1.143000000
H     1.087000000    -0.594000000    -2.061000000
C     0.712000000     0.917000000    -0.469000000
H     1.334000000     1.730000000    -0.822000000
C    -0.026000000     1.101000000     0.707000000
H     0.010000000     2.023000000     1.283000000
C    -0.831000000     0.114000000     1.173000000
H    -1.409000000     0.233000000     2.086000000
C    -0.975000000    -1.093000000     0.517000000
C    -1.825000000    -2.249000000     1.077000000
O    -2.284000000    -2.273000000     2.173000000
O    -2.129000000    -3.110000000     0.372000000
