14
-82.50652
C    -1.106000000     0.099000000     1.008000000
H    -1.892000000    -0.078000000     1.739000000
C    -0.984000000    -0.835000000    -0.030000000
H    -1.656000000    -1.678000000    -0.172000000
C     0.054000000    -0.809000000    -0.886000000
H     0.250000000    -1.696000000    -1.423000000
C     1.006000000     0.240000000    -0.853000000
H     1.949000000     0.089000000    -1.372000000
C     0.898000000     1.119000000     0.202000000
H     1.602000000     1.940000000     0.310000000
C    -0.160000000     1.075000000     1.129000000
C    -0.285000000     2.113000000     2.197000000
O     0.541000000     2.963000000     2.357000000
O    -1.190000000     1.985000000     3.044000000
