14
-83.18240
C    -0.398000000    -1.360000000     0.466000000
H    -0.727000000    -2.394000000     0.418000000
C     0.659000000    -1.095000000    -0.415000000
H     0.979000000    -1.912000000    -1.057000000
C     0.956000000     0.229000000    -0.739000000
H     1.863000000     0.473000000    -1.347000000
C     0.190000000     1.251000000    -0.272000000
H     0.564000000     2.258000000    -0.437000000
C    -0.910000000     1.030000000     0.597000000
H    -1.442000000     1.897000000     0.981000000
C    -1.149000000    -0.321000000     1.070000000
C    -2.245000000    -0.687000000     2.125000000
O    -2.813000000     0.204000000     2.713000000
O    -2.611000000    -1.867000000     2.211000000
