14
-88.04786
C    -0.993000000    -1.008000000    -0.099000000
H    -1.628000000    -1.885000000    -0.197000000
C    -0.041000000    -0.816000000    -1.073000000
H     0.010000000    -1.531000000    -1.890000000
C     0.868000000     0.264000000    -0.893000000
H     1.636000000     0.464000000    -1.605000000
C     0.774000000     0.986000000     0.258000000
H     1.427000000     1.833000000     0.451000000
C    -0.175000000     0.779000000     1.214000000
H    -0.144000000     1.352000000     2.137000000
C    -1.175000000    -0.206000000     0.994000000
C    -2.259000000    -0.516000000     2.084000000
O    -2.473000000     0.338000000     2.964000000
O    -2.742000000    -1.625000000     2.200000000
