14
-84.27685
C    -0.789000000    -1.105000000     0.484000000
H    -1.283000000    -2.058000000     0.655000000
C     0.263000000    -1.182000000    -0.416000000
H     0.612000000    -2.144000000    -0.784000000
C     0.906000000    -0.032000000    -0.821000000
H     1.628000000    -0.047000000    -1.568000000
C     0.487000000     1.187000000    -0.358000000
H     1.020000000     2.055000000    -0.740000000
C    -0.596000000     1.312000000     0.546000000
H    -0.920000000     2.302000000     0.856000000
C    -1.236000000     0.145000000     1.017000000
C    -2.206000000     0.210000000     2.141000000
O    -2.420000000     1.214000000     2.751000000
O    -2.835000000    -0.787000000     2.450000000
