14
-79.48537
C    -0.233000000    -0.448000000     1.437000000
H    -0.072000000    -0.806000000     2.451000000
C     0.512000000    -1.124000000     0.496000000
H     1.129000000    -1.982000000     0.750000000
C     0.703000000    -0.554000000    -0.768000000
H     1.433000000    -1.106000000    -1.344000000
C     0.098000000     0.642000000    -1.139000000
H     0.152000000     1.008000000    -2.161000000
C    -0.724000000     1.267000000    -0.253000000
H    -1.120000000     2.232000000    -0.560000000
C    -0.934000000     0.694000000     1.007000000
C    -1.889000000     1.365000000     1.921000000
O    -2.232000000     2.510000000     1.774000000
O    -2.377000000     0.776000000     2.871000000
