14
-85.97088
C     0.112000000    -1.349000000     0.562000000
H     0.134000000    -2.394000000     0.859000000
C     0.802000000    -0.897000000    -0.527000000
H     1.540000000    -1.417000000    -1.132000000
C     0.676000000     0.420000000    -0.881000000
H     1.237000000     0.819000000    -1.747000000
C    -0.314000000     1.242000000    -0.343000000
H    -0.408000000     2.276000000    -0.666000000
C    -1.034000000     0.792000000     0.788000000
H    -1.710000000     1.538000000     1.197000000
C    -0.856000000    -0.535000000     1.210000000
C    -1.559000000    -1.071000000     2.384000000
O    -2.422000000    -0.453000000     2.957000000
O    -1.230000000    -2.186000000     2.799000000
