14
-89.52863
C    -0.486000000    -1.191000000     0.655000000
H    -0.796000000    -2.171000000     1.010000000
C     0.685000000    -1.055000000    -0.136000000
H     1.365000000    -1.891000000    -0.281000000
C     1.040000000     0.123000000    -0.698000000
H     1.847000000     0.093000000    -1.402000000
C     0.323000000     1.256000000    -0.409000000
H     0.490000000     2.212000000    -0.898000000
C    -0.797000000     1.189000000     0.461000000
H    -1.283000000     2.144000000     0.646000000
C    -1.267000000    -0.030000000     0.999000000
C    -2.546000000    -0.194000000     1.832000000
O    -3.120000000     0.768000000     2.311000000
O    -2.971000000    -1.334000000     2.016000000
