14
-88.66476
C     0.735000000    -0.377000000     1.300000000
H     1.227000000    -0.766000000     2.188000000
C     1.003000000    -0.985000000     0.001000000
H     1.715000000    -1.795000000    -0.138000000
C     0.206000000    -0.521000000    -1.150000000
H     0.382000000    -1.053000000    -2.105000000
C    -0.705000000     0.537000000    -0.944000000
H    -1.239000000     0.931000000    -1.805000000
C    -0.869000000     1.111000000     0.306000000
H    -1.557000000     1.949000000     0.383000000
C    -0.272000000     0.573000000     1.463000000
C    -0.612000000     1.119000000     2.858000000
O    -1.173000000     2.197000000     2.964000000
O    -0.437000000     0.352000000     3.791000000
