14
-86.61670
C    -0.984000000     0.750000000     0.802000000
H    -1.850000000     1.263000000     1.212000000
C    -1.091000000    -0.609000000     0.477000000
H    -2.047000000    -1.077000000     0.699000000
C    -0.025000000    -1.206000000    -0.248000000
H    -0.014000000    -2.209000000    -0.526000000
C     1.118000000    -0.475000000    -0.563000000
H     1.911000000    -0.970000000    -1.119000000
C     1.230000000     0.884000000    -0.213000000
H     2.141000000     1.360000000    -0.568000000
C     0.130000000     1.489000000     0.417000000
C     0.076000000     2.959000000     0.618000000
O     0.828000000     3.693000000     0.035000000
O    -0.619000000     3.425000000     1.525000000
