14
-89.23776
C     0.763000000    -1.149000000     0.657000000
H     1.421000000    -1.934000000     1.019000000
C     0.745000000    -0.831000000    -0.732000000
H     1.243000000    -1.508000000    -1.421000000
C     0.079000000     0.301000000    -1.242000000
H     0.063000000     0.607000000    -2.299000000
C    -0.703000000     1.034000000    -0.318000000
H    -1.235000000     1.916000000    -0.666000000
C    -0.652000000     0.761000000     1.004000000
H    -1.325000000     1.355000000     1.617000000
C    -0.082000000    -0.401000000     1.494000000
C    -0.247000000    -0.745000000     2.978000000
O    -1.193000000    -0.232000000     3.575000000
O     0.562000000    -1.457000000     3.541000000
