14
-86.43755
C     1.347000000    -0.494000000    -0.287000000
H     2.329000000    -0.705000000    -0.702000000
C     0.543000000     0.234000000    -1.153000000
H     0.752000000     0.430000000    -2.202000000
C    -0.691000000     0.685000000    -0.752000000
H    -1.468000000     1.058000000    -1.444000000
C    -1.087000000     0.405000000     0.512000000
H    -2.083000000     0.732000000     0.801000000
C    -0.272000000    -0.224000000     1.453000000
H    -0.564000000    -0.568000000     2.442000000
C     1.027000000    -0.719000000     1.021000000
C     1.885000000    -1.530000000     1.957000000
O     1.344000000    -1.932000000     2.977000000
O     3.052000000    -1.870000000     1.670000000
