14
-90.06538
C     0.968000000    -1.130000000     0.183000000
H     1.748000000    -1.888000000     0.186000000
C     0.546000000    -0.660000000    -1.065000000
H     0.765000000    -1.196000000    -1.985000000
C    -0.452000000     0.369000000    -1.101000000
H    -0.865000000     0.634000000    -2.125000000
C    -0.789000000     1.014000000     0.069000000
H    -1.559000000     1.778000000    -0.013000000
C    -0.180000000     0.681000000     1.297000000
H    -0.477000000     1.200000000     2.205000000
C     0.588000000    -0.489000000     1.377000000
C     1.081000000    -0.949000000     2.764000000
O     0.454000000    -0.637000000     3.774000000
O     1.995000000    -1.762000000     2.826000000
