14
-76.09853
C     0.562000000    -1.329000000    -0.343000000
H     0.836000000    -2.280000000    -0.795000000
C     0.083000000    -0.357000000    -1.244000000
H     0.020000000    -0.653000000    -2.288000000
C    -0.351000000     0.871000000    -0.789000000
H    -0.591000000     1.560000000    -1.599000000
C    -0.374000000     1.195000000     0.589000000
H    -0.768000000     2.182000000     0.815000000
C     0.062000000     0.200000000     1.556000000
H     0.027000000     0.415000000     2.621000000
C     0.593000000    -1.005000000     1.090000000
C     0.828000000    -2.063000000     2.093000000
O     1.364000000    -1.793000000     3.121000000
O     0.759000000    -3.223000000     1.758000000
