14
-83.75129
C    -0.582000000    -0.770000000     1.122000000
H    -0.972000000    -1.470000000     1.856000000
C    -0.320000000    -1.251000000    -0.121000000
H    -0.545000000    -2.276000000    -0.404000000
C     0.172000000    -0.389000000    -1.125000000
H     0.254000000    -0.788000000    -2.175000000
C     0.513000000     0.918000000    -0.818000000
H     1.085000000     1.529000000    -1.511000000
C     0.174000000     1.438000000     0.425000000
H     0.542000000     2.422000000     0.707000000
C    -0.436000000     0.635000000     1.415000000
C    -0.608000000     1.037000000     2.835000000
O    -0.095000000     2.032000000     3.236000000
O    -1.197000000     0.318000000     3.625000000
