14
-91.41378
C    -1.291000000     0.395000000     0.626000000
H    -2.327000000     0.503000000     0.936000000
C    -0.926000000    -0.919000000     0.299000000
H    -1.712000000    -1.657000000     0.431000000
C     0.327000000    -1.209000000    -0.268000000
H     0.573000000    -2.162000000    -0.627000000
C     1.215000000    -0.147000000    -0.476000000
H     2.171000000    -0.235000000    -0.985000000
C     0.871000000     1.139000000    -0.095000000
H     1.520000000     1.986000000    -0.303000000
C    -0.372000000     1.448000000     0.456000000
C    -0.684000000     2.916000000     0.765000000
O     0.233000000     3.752000000     0.704000000
O    -1.813000000     3.332000000     1.035000000
