14
-85.80478
C    -0.101000000    -1.190000000     0.960000000
H    -0.021000000    -2.169000000     1.425000000
C    -0.174000000    -1.249000000    -0.463000000
H    -0.135000000    -2.215000000    -0.959000000
C    -0.216000000    -0.107000000    -1.276000000
H    -0.309000000    -0.136000000    -2.370000000
C    -0.225000000     1.128000000    -0.648000000
H    -0.214000000     2.098000000    -1.138000000
C    -0.033000000     1.191000000     0.769000000
H     0.091000000     2.207000000     1.134000000
C     0.047000000     0.086000000     1.597000000
C     0.159000000     0.228000000     3.082000000
O     0.273000000     1.327000000     3.549000000
O     0.098000000    -0.735000000     3.834000000
