14
-86.22620
C     0.699000000    -1.168000000     0.512000000
H     1.440000000    -1.837000000     0.941000000
C     0.852000000    -0.656000000    -0.788000000
H     1.671000000    -1.019000000    -1.404000000
C     0.035000000     0.437000000    -1.152000000
H     0.102000000     0.866000000    -2.136000000
C    -0.929000000     0.944000000    -0.255000000
H    -1.561000000     1.793000000    -0.506000000
C    -1.054000000     0.398000000     1.014000000
H    -1.782000000     0.762000000     1.734000000
C    -0.240000000    -0.632000000     1.436000000
C    -0.230000000    -1.053000000     2.842000000
O    -0.921000000    -0.490000000     3.642000000
O     0.747000000    -1.713000000     3.249000000
