14
-90.02252
C     0.563000000     0.168000000     1.375000000
H     1.104000000     0.405000000     2.287000000
C    -0.543000000     0.911000000     0.898000000
H    -0.911000000     1.785000000     1.428000000
C    -1.065000000     0.596000000    -0.380000000
H    -1.876000000     1.147000000    -0.799000000
C    -0.452000000    -0.475000000    -1.125000000
H    -0.750000000    -0.729000000    -2.139000000
C     0.710000000    -1.085000000    -0.654000000
H     1.261000000    -1.670000000    -1.386000000
C     1.245000000    -0.789000000     0.599000000
C     2.552000000    -1.508000000     0.991000000
O     2.958000000    -2.560000000     0.498000000
O     3.185000000    -0.900000000     1.858000000
