14
-82.27313
C    -1.248000000     0.812000000    -0.019000000
H    -2.204000000     1.328000000    -0.047000000
C    -1.129000000    -0.569000000    -0.143000000
H    -1.934000000    -1.299000000    -0.177000000
C     0.134000000    -1.204000000    -0.172000000
H     0.236000000    -2.299000000    -0.154000000
C     1.276000000    -0.406000000    -0.152000000
H     2.252000000    -0.884000000    -0.157000000
C     1.159000000     0.982000000     0.103000000
H     2.053000000     1.549000000     0.349000000
C    -0.108000000     1.583000000     0.118000000
C    -0.197000000     3.062000000     0.381000000
O     0.730000000     3.781000000     0.725000000
O    -1.270000000     3.557000000     0.414000000
