14
-85.48491
C    -0.092000000    -1.399000000     0.449000000
H    -0.342000000    -2.417000000     0.736000000
C    -0.347000000    -0.980000000    -0.851000000
H    -0.575000000    -1.723000000    -1.610000000
C    -0.126000000     0.378000000    -1.180000000
H    -0.075000000     0.739000000    -2.230000000
C     0.227000000     1.290000000    -0.172000000
H     0.414000000     2.325000000    -0.444000000
C     0.268000000     0.801000000     1.149000000
H     0.436000000     1.509000000     1.957000000
C     0.206000000    -0.541000000     1.468000000
C     0.178000000    -0.998000000     2.952000000
O     0.573000000    -0.212000000     3.819000000
O     0.078000000    -2.160000000     3.193000000
