14
-83.72504
C     0.256000000    -1.312000000     0.660000000
H     0.453000000    -2.334000000     0.975000000
C     0.199000000    -1.052000000    -0.713000000
H     0.414000000    -1.911000000    -1.342000000
C    -0.098000000     0.168000000    -1.190000000
H    -0.157000000     0.340000000    -2.330000000
C    -0.450000000     1.211000000    -0.324000000
H    -0.722000000     2.184000000    -0.724000000
C    -0.165000000     1.063000000     1.021000000
H    -0.328000000     1.954000000     1.621000000
C     0.150000000    -0.232000000     1.543000000
C     0.260000000    -0.517000000     2.994000000
O     0.058000000     0.399000000     3.795000000
O     0.725000000    -1.565000000     3.492000000
