14
-83.42260
C     0.490000000    -1.032000000     0.935000000
H     0.712000000    -1.858000000     1.606000000
C    -0.096000000    -1.231000000    -0.323000000
H    -0.314000000    -2.239000000    -0.667000000
C    -0.513000000    -0.118000000    -1.057000000
H    -1.096000000    -0.286000000    -1.905000000
C    -0.376000000     1.166000000    -0.663000000
H    -0.642000000     2.086000000    -1.177000000
C     0.197000000     1.370000000     0.610000000
H     0.271000000     2.359000000     1.055000000
C     0.673000000     0.271000000     1.327000000
C     1.241000000     0.367000000     2.726000000
O     1.027000000     1.357000000     3.365000000
O     1.942000000    -0.508000000     3.200000000
