14
-86.86123
C     1.051000000    -0.505000000     0.962000000
H     1.659000000    -1.029000000     1.696000000
C     0.337000000    -1.272000000     0.045000000
H     0.521000000    -2.340000000    -0.041000000
C    -0.642000000    -0.659000000    -0.814000000
H    -1.251000000    -1.388000000    -1.326000000
C    -0.786000000     0.693000000    -0.793000000
H    -1.615000000     1.160000000    -1.319000000
C    -0.034000000     1.443000000     0.113000000
H    -0.216000000     2.505000000     0.255000000
C     0.891000000     0.859000000     0.961000000
C     1.631000000     1.682000000     1.993000000
O     1.219000000     2.771000000     2.276000000
O     2.564000000     1.209000000     2.608000000
