14
-90.88161
C    -1.305000000     0.687000000    -0.001000000
H    -2.303000000     1.111000000     0.066000000
C    -1.064000000    -0.652000000     0.411000000
H    -1.843000000    -1.288000000     0.825000000
C     0.254000000    -1.138000000     0.452000000
H     0.548000000    -2.105000000     0.776000000
C     1.292000000    -0.293000000     0.016000000
H     2.280000000    -0.726000000    -0.121000000
C     1.003000000     0.994000000    -0.492000000
H     1.828000000     1.624000000    -0.815000000
C    -0.309000000     1.474000000    -0.510000000
C    -0.696000000     2.761000000    -1.095000000
O     0.150000000     3.509000000    -1.641000000
O    -1.854000000     3.129000000    -0.958000000
