14
-87.81787
C    -0.404000000    -1.133000000     0.906000000
H    -0.625000000    -1.978000000     1.554000000
C    -0.836000000    -1.028000000    -0.440000000
H    -1.491000000    -1.796000000    -0.843000000
C    -0.389000000     0.055000000    -1.193000000
H    -0.707000000     0.186000000    -2.257000000
C     0.442000000     1.052000000    -0.605000000
H     0.776000000     1.939000000    -1.137000000
C     0.939000000     0.888000000     0.721000000
H     1.587000000     1.641000000     1.162000000
C     0.469000000    -0.210000000     1.456000000
C     0.776000000    -0.133000000     2.966000000
O     1.462000000     0.740000000     3.423000000
O     0.422000000    -1.035000000     3.738000000
