14
-83.81780
C     0.960000000    -0.235000000    -1.113000000
H     1.568000000    -0.330000000    -2.010000000
C    -0.224000000     0.546000000    -1.179000000
H    -0.685000000     0.704000000    -2.150000000
C    -1.082000000     0.656000000    -0.052000000
H    -2.029000000     1.093000000    -0.145000000
C    -0.616000000     0.203000000     1.125000000
H    -1.286000000     0.378000000     1.962000000
C     0.599000000    -0.442000000     1.228000000
H     0.973000000    -0.749000000     2.202000000
C     1.408000000    -0.687000000     0.124000000
C     2.682000000    -1.483000000     0.236000000
O     3.078000000    -1.861000000     1.376000000
O     3.451000000    -1.570000000    -0.680000000
