14
-85.20950
C     1.316000000    -0.683000000     0.131000000
H     2.316000000    -1.105000000     0.185000000
C     1.156000000     0.626000000    -0.400000000
H     1.972000000     1.211000000    -0.815000000
C    -0.148000000     1.132000000    -0.443000000
H    -0.375000000     2.160000000    -0.809000000
C    -1.214000000     0.434000000     0.097000000
H    -2.188000000     0.903000000     0.212000000
C    -1.090000000    -0.832000000     0.556000000
H    -1.968000000    -1.345000000     0.940000000
C     0.201000000    -1.452000000     0.545000000
C     0.400000000    -2.869000000     1.047000000
O    -0.556000000    -3.624000000     1.306000000
O     1.487000000    -3.300000000     1.171000000
