14
-86.95731
C     1.248000000    -0.540000000     0.412000000
H     2.293000000    -0.791000000     0.572000000
C     1.037000000     0.627000000    -0.305000000
H     1.922000000     1.205000000    -0.560000000
C    -0.247000000     1.014000000    -0.686000000
H    -0.327000000     1.952000000    -1.246000000
C    -1.333000000     0.214000000    -0.360000000
H    -2.332000000     0.427000000    -0.731000000
C    -1.048000000    -0.935000000     0.425000000
H    -1.823000000    -1.654000000     0.679000000
C     0.197000000    -1.354000000     0.801000000
C     0.422000000    -2.575000000     1.653000000
O    -0.530000000    -3.251000000     2.048000000
O     1.507000000    -2.785000000     2.097000000
