14
-85.86386
C     1.258000000    -0.502000000     0.512000000
H     2.139000000    -0.733000000     1.105000000
C     1.132000000     0.632000000    -0.331000000
H     1.958000000     1.330000000    -0.439000000
C    -0.140000000     0.945000000    -0.781000000
H    -0.388000000     1.868000000    -1.419000000
C    -1.215000000     0.110000000    -0.549000000
H    -2.154000000     0.560000000    -0.861000000
C    -1.043000000    -1.000000000     0.321000000
H    -1.884000000    -1.624000000     0.612000000
C     0.218000000    -1.314000000     0.827000000
C     0.383000000    -2.608000000     1.664000000
O    -0.489000000    -3.510000000     1.610000000
O     1.452000000    -2.871000000     2.257000000
