14
-87.30225
C     1.381000000    -0.277000000     0.577000000
H     2.383000000    -0.393000000     0.981000000
C     1.006000000     0.721000000    -0.381000000
H     1.746000000     1.389000000    -0.816000000
C    -0.287000000     0.847000000    -0.864000000
H    -0.584000000     1.620000000    -1.538000000
C    -1.264000000     0.044000000    -0.320000000
H    -2.249000000     0.227000000    -0.743000000
C    -0.960000000    -0.855000000     0.696000000
H    -1.658000000    -1.546000000     1.162000000
C     0.355000000    -1.032000000     1.168000000
C     0.708000000    -2.148000000     2.135000000
O    -0.144000000    -2.855000000     2.588000000
O     1.835000000    -2.133000000     2.628000000
