14
-82.34738
C    -0.113000000    -1.323000000    -0.589000000
H    -0.091000000    -2.225000000    -1.194000000
C     0.691000000    -0.296000000    -1.068000000
H     1.313000000    -0.337000000    -1.958000000
C     0.711000000     0.852000000    -0.371000000
H     1.140000000     1.711000000    -0.856000000
C    -0.097000000     1.070000000     0.708000000
H    -0.181000000     2.050000000     1.172000000
C    -0.883000000     0.059000000     1.236000000
H    -1.430000000     0.263000000     2.152000000
C    -0.876000000    -1.192000000     0.606000000
C    -1.604000000    -2.394000000     1.106000000
O    -1.960000000    -2.478000000     2.285000000
O    -1.982000000    -3.253000000     0.354000000
