14
-91.40873
C    -0.546000000     1.065000000     0.973000000
H    -1.018000000     1.709000000     1.711000000
C    -0.247000000    -0.297000000     1.236000000
H    -0.583000000    -0.618000000     2.218000000
C     0.309000000    -1.160000000     0.279000000
H     0.569000000    -2.227000000     0.508000000
C     0.462000000    -0.743000000    -1.032000000
H     0.848000000    -1.460000000    -1.752000000
C     0.176000000     0.586000000    -1.325000000
H     0.313000000     1.021000000    -2.312000000
C    -0.300000000     1.483000000    -0.302000000
C    -0.358000000     3.012000000    -0.606000000
O    -0.229000000     3.411000000    -1.744000000
O    -0.483000000     3.797000000     0.365000000
