14
-84.89712
C    -0.475000000    -0.961000000     0.982000000
H    -0.813000000    -1.846000000     1.516000000
C     0.320000000    -1.227000000    -0.154000000
H     0.546000000    -2.237000000    -0.486000000
C     0.698000000    -0.208000000    -1.008000000
H     1.206000000    -0.461000000    -1.941000000
C     0.327000000     1.077000000    -0.694000000
H     0.623000000     1.884000000    -1.359000000
C    -0.401000000     1.363000000     0.481000000
H    -0.836000000     2.337000000     0.690000000
C    -0.800000000     0.341000000     1.353000000
C    -1.802000000     0.611000000     2.425000000
O    -1.982000000     1.693000000     2.942000000
O    -2.235000000    -0.376000000     2.998000000
