14
-87.06762
C    -0.323000000    -1.148000000     0.889000000
H    -0.470000000    -2.109000000     1.374000000
C     0.268000000    -1.249000000    -0.374000000
H     0.479000000    -2.203000000    -0.851000000
C     0.574000000    -0.131000000    -1.075000000
H     0.951000000    -0.199000000    -2.131000000
C     0.251000000     1.104000000    -0.574000000
H     0.399000000     1.989000000    -1.189000000
C    -0.309000000     1.254000000     0.655000000
H    -0.540000000     2.201000000     1.136000000
C    -0.618000000     0.093000000     1.448000000
C    -1.266000000     0.266000000     2.769000000
O    -1.215000000     1.339000000     3.352000000
O    -1.947000000    -0.619000000     3.259000000
