14
-88.75674
C    -0.440000000    -0.977000000     0.996000000
H    -0.673000000    -1.737000000     1.738000000
C     0.470000000    -1.275000000    -0.030000000
H     0.846000000    -2.279000000    -0.215000000
C     0.847000000    -0.257000000    -0.890000000
H     1.615000000    -0.429000000    -1.701000000
C     0.257000000     0.933000000    -0.753000000
H     0.411000000     1.770000000    -1.429000000
C    -0.598000000     1.261000000     0.265000000
H    -0.998000000     2.270000000     0.328000000
C    -0.962000000     0.278000000     1.172000000
C    -2.089000000     0.529000000     2.276000000
O    -2.311000000     1.743000000     2.454000000
O    -2.491000000    -0.379000000     2.970000000
