14
-90.22058
C    -1.094000000    -0.892000000     0.620000000
H    -1.700000000    -1.596000000     1.183000000
C     0.016000000    -1.358000000    -0.098000000
H     0.232000000    -2.415000000    -0.233000000
C     0.908000000    -0.440000000    -0.664000000
H     1.739000000    -0.835000000    -1.249000000
C     0.710000000     0.903000000    -0.482000000
H     1.486000000     1.530000000    -0.913000000
C    -0.333000000     1.379000000     0.250000000
H    -0.452000000     2.450000000     0.395000000
C    -1.193000000     0.511000000     0.858000000
C    -2.153000000     1.088000000     1.867000000
O    -2.068000000     2.258000000     2.220000000
O    -2.975000000     0.338000000     2.427000000
