14
-82.16385
C    -0.850000000    -0.816000000     0.884000000
H    -1.519000000    -1.494000000     1.407000000
C     0.226000000    -1.309000000     0.164000000
H     0.403000000    -2.382000000     0.179000000
C     0.963000000    -0.420000000    -0.597000000
H     1.842000000    -0.799000000    -1.150000000
C     0.667000000     0.923000000    -0.687000000
H     1.244000000     1.569000000    -1.344000000
C    -0.417000000     1.381000000     0.102000000
H    -0.616000000     2.446000000     0.008000000
C    -1.196000000     0.553000000     0.832000000
C    -2.375000000     1.053000000     1.622000000
O    -2.675000000     2.215000000     1.702000000
O    -3.132000000     0.280000000     2.106000000
