14
-86.82413
C    -1.151000000    -0.851000000     0.167000000
H    -1.938000000    -1.601000000     0.174000000
C    -0.129000000    -1.064000000    -0.804000000
H    -0.245000000    -1.880000000    -1.513000000
C     0.900000000    -0.134000000    -0.858000000
H     1.620000000    -0.219000000    -1.723000000
C     0.946000000     0.855000000     0.079000000
H     1.812000000     1.510000000     0.124000000
C    -0.036000000     1.095000000     1.035000000
H    -0.039000000     1.962000000     1.690000000
C    -1.143000000     0.216000000     1.075000000
C    -2.239000000     0.499000000     2.105000000
O    -2.146000000     1.358000000     2.918000000
O    -3.258000000    -0.140000000     1.968000000
