14
-92.11335
C    -1.302000000    -0.691000000     0.058000000
H    -2.182000000    -1.324000000    -0.017000000
C    -0.523000000    -0.554000000    -1.066000000
H    -0.813000000    -1.080000000    -1.972000000
C     0.623000000     0.234000000    -1.053000000
H     1.069000000     0.440000000    -2.018000000
C     1.044000000     0.803000000     0.188000000
H     1.952000000     1.397000000     0.260000000
C     0.305000000     0.548000000     1.330000000
H     0.606000000     0.985000000     2.278000000
C    -0.881000000    -0.184000000     1.302000000
C    -1.723000000    -0.363000000     2.494000000
O    -1.285000000     0.097000000     3.543000000
O    -2.759000000    -1.008000000     2.438000000
