14
-84.98793
C    -1.124000000    -0.922000000     0.067000000
H    -2.007000000    -1.554000000     0.007000000
C    -0.456000000    -0.589000000    -1.073000000
H    -0.761000000    -0.909000000    -2.065000000
C     0.617000000     0.273000000    -1.007000000
H     1.082000000     0.695000000    -1.937000000
C     1.000000000     0.775000000     0.221000000
H     1.869000000     1.428000000     0.247000000
C     0.326000000     0.513000000     1.424000000
H     0.705000000     0.761000000     2.412000000
C    -0.715000000    -0.369000000     1.316000000
C    -1.529000000    -0.762000000     2.566000000
O    -1.456000000    -0.041000000     3.544000000
O    -2.162000000    -1.776000000     2.663000000
