14
-82.93009
C    -1.150000000    -0.906000000    -0.132000000
H    -2.030000000    -1.488000000    -0.394000000
C     0.005000000    -1.019000000    -0.963000000
H     0.088000000    -1.760000000    -1.753000000
C     1.059000000    -0.172000000    -0.656000000
H     2.021000000    -0.301000000    -1.204000000
C     0.981000000     0.749000000     0.434000000
H     1.821000000     1.422000000     0.583000000
C    -0.206000000     0.887000000     1.145000000
H    -0.406000000     1.628000000     1.915000000
C    -1.326000000     0.148000000     0.836000000
C    -2.607000000     0.330000000     1.630000000
O    -2.503000000     0.831000000     2.701000000
O    -3.690000000    -0.191000000     1.330000000
