14
-88.27620
C    -1.266000000    -0.781000000     0.032000000
H    -2.171000000    -1.345000000    -0.177000000
C    -0.354000000    -0.726000000    -0.962000000
H    -0.589000000    -1.343000000    -1.825000000
C     0.880000000     0.040000000    -0.884000000
H     1.616000000     0.086000000    -1.650000000
C     1.104000000     0.746000000     0.287000000
H     2.074000000     1.223000000     0.404000000
C     0.154000000     0.678000000     1.298000000
H     0.331000000     1.211000000     2.229000000
C    -0.963000000    -0.100000000     1.186000000
C    -2.049000000    -0.004000000     2.291000000
O    -1.735000000     0.492000000     3.385000000
O    -3.203000000    -0.153000000     1.897000000
