14
-84.40715
C    -1.472000000     0.084000000     0.052000000
H    -2.557000000     0.032000000     0.049000000
C    -0.744000000    -0.659000000    -0.835000000
H    -1.188000000    -1.366000000    -1.531000000
C     0.638000000    -0.758000000    -0.776000000
H     1.106000000    -1.518000000    -1.415000000
C     1.336000000     0.108000000     0.088000000
H     2.407000000     0.294000000     0.071000000
C     0.575000000     0.944000000     0.986000000
H     1.161000000     1.431000000     1.762000000
C    -0.826000000     0.894000000     1.005000000
C    -1.545000000     1.664000000     2.028000000
O    -1.034000000     1.993000000     3.089000000
O    -2.748000000     1.865000000     1.916000000
