14
-89.31777
C    -1.366000000    -0.034000000     0.393000000
H    -2.445000000     0.005000000     0.517000000
C    -0.765000000    -0.896000000    -0.496000000
H    -1.347000000    -1.565000000    -1.125000000
C     0.560000000    -0.728000000    -0.788000000
H     0.928000000    -1.435000000    -1.553000000
C     1.361000000     0.162000000    -0.045000000
H     2.414000000     0.303000000    -0.274000000
C     0.735000000     0.991000000     0.836000000
H     1.307000000     1.790000000     1.302000000
C    -0.654000000     0.957000000     1.040000000
C    -1.408000000     1.987000000     1.898000000
O    -0.808000000     2.983000000     2.218000000
O    -2.563000000     1.740000000     2.359000000
