14
-80.92444
C    -0.913000000     0.961000000     0.702000000
H    -1.646000000     1.468000000     1.324000000
C    -1.279000000    -0.021000000    -0.257000000
H    -2.297000000    -0.282000000    -0.535000000
C    -0.313000000    -0.847000000    -0.774000000
H    -0.640000000    -1.636000000    -1.483000000
C     0.999000000    -0.698000000    -0.471000000
H     1.789000000    -1.257000000    -0.965000000
C     1.335000000     0.305000000     0.466000000
H     2.355000000     0.454000000     0.810000000
C     0.386000000     1.046000000     1.128000000
C     0.733000000     2.138000000     2.025000000
O     1.873000000     2.225000000     2.462000000
O    -0.150000000     2.792000000     2.532000000
