14
-88.66895
C    -0.867000000    -1.052000000     0.519000000
H    -1.450000000    -1.947000000     0.719000000
C    -0.742000000    -0.691000000    -0.811000000
H    -1.176000000    -1.385000000    -1.526000000
C    -0.010000000     0.382000000    -1.173000000
H     0.214000000     0.608000000    -2.258000000
C     0.667000000     1.120000000    -0.167000000
H     1.279000000     1.993000000    -0.378000000
C     0.555000000     0.742000000     1.147000000
H     1.121000000     1.315000000     1.876000000
C    -0.154000000    -0.379000000     1.528000000
C    -0.235000000    -0.786000000     3.011000000
O     0.625000000    -0.393000000     3.805000000
O    -1.079000000    -1.573000000     3.431000000
