14
-84.59548
C    -0.845000000    -1.032000000     0.696000000
H    -1.487000000    -1.726000000     1.232000000
C    -0.752000000    -0.860000000    -0.634000000
H    -1.280000000    -1.546000000    -1.292000000
C     0.113000000     0.140000000    -1.242000000
H     0.134000000     0.376000000    -2.359000000
C     0.755000000     1.046000000    -0.361000000
H     1.212000000     1.920000000    -0.817000000
C     0.644000000     0.873000000     1.004000000
H     1.240000000     1.496000000     1.667000000
C    -0.140000000    -0.174000000     1.519000000
C    -0.171000000    -0.399000000     3.039000000
O     0.653000000     0.156000000     3.751000000
O    -0.932000000    -1.186000000     3.544000000
