14
-88.07346
C    -0.732000000    -1.201000000     0.581000000
H    -1.297000000    -2.107000000     0.786000000
C    -0.563000000    -0.914000000    -0.775000000
H    -1.052000000    -1.523000000    -1.530000000
C     0.116000000     0.246000000    -1.170000000
H     0.130000000     0.381000000    -2.235000000
C     0.777000000     1.057000000    -0.262000000
H     1.246000000     1.957000000    -0.652000000
C     0.675000000     0.722000000     1.052000000
H     1.157000000     1.441000000     1.710000000
C    -0.130000000    -0.371000000     1.548000000
C    -0.175000000    -0.675000000     3.042000000
O     0.315000000     0.139000000     3.791000000
O    -0.874000000    -1.628000000     3.482000000
