14
-92.97621
C     0.013000000    -1.458000000    -0.388000000
H    -0.035000000    -2.492000000    -0.720000000
C    -0.013000000    -0.415000000    -1.245000000
H     0.001000000    -0.661000000    -2.304000000
C    -0.053000000     0.924000000    -0.812000000
H    -0.067000000     1.736000000    -1.558000000
C    -0.035000000     1.223000000     0.558000000
H    -0.127000000     2.245000000     0.915000000
C     0.022000000     0.146000000     1.444000000
H     0.123000000     0.349000000     2.507000000
C     0.059000000    -1.184000000     0.974000000
C     0.133000000    -2.317000000     2.029000000
O     0.064000000    -2.026000000     3.210000000
O     0.236000000    -3.457000000     1.649000000
