14
-83.48590
C     0.938000000    -1.011000000    -0.584000000
H     1.607000000    -1.638000000    -1.167000000
C     0.384000000     0.092000000    -1.206000000
H     0.619000000     0.364000000    -2.232000000
C    -0.545000000     0.917000000    -0.626000000
H    -1.013000000     1.725000000    -1.311000000
C    -0.825000000     0.702000000     0.752000000
H    -1.483000000     1.334000000     1.343000000
C    -0.219000000    -0.353000000     1.428000000
H    -0.319000000    -0.394000000     2.509000000
C     0.714000000    -1.191000000     0.794000000
C     1.341000000    -2.294000000     1.553000000
O     0.758000000    -2.759000000     2.479000000
O     2.343000000    -2.847000000     1.102000000
