14
-80.74113
C     0.706000000    -0.543000000    -1.210000000
H     1.162000000    -0.795000000    -2.164000000
C    -0.602000000    -0.010000000    -1.153000000
H    -1.173000000     0.047000000    -2.076000000
C    -1.110000000     0.495000000    -0.052000000
H    -2.035000000     1.012000000    -0.051000000
C    -0.416000000     0.404000000     1.132000000
H    -0.926000000     0.810000000     2.001000000
C     0.901000000    -0.147000000     1.201000000
H     1.510000000    -0.140000000     2.102000000
C     1.462000000    -0.562000000    -0.028000000
C     2.863000000    -1.115000000     0.112000000
O     3.493000000    -0.990000000     1.149000000
O     3.224000000    -1.796000000    -0.776000000
