14
-85.50223
C    -1.028000000    -0.917000000     0.438000000
H    -1.784000000    -1.674000000     0.630000000
C     0.216000000    -1.245000000    -0.141000000
H     0.595000000    -2.247000000    -0.330000000
C     1.051000000    -0.243000000    -0.521000000
H     1.977000000    -0.489000000    -1.013000000
C     0.688000000     1.067000000    -0.490000000
H     1.429000000     1.834000000    -0.699000000
C    -0.506000000     1.408000000     0.195000000
H    -0.785000000     2.448000000     0.346000000
C    -1.352000000     0.405000000     0.673000000
C    -2.573000000     0.675000000     1.522000000
O    -2.996000000     1.852000000     1.630000000
O    -3.130000000    -0.165000000     2.190000000
