14
-86.75409
C     0.342000000     0.884000000    -1.131000000
H     0.531000000     1.643000000    -1.887000000
C    -0.852000000     0.893000000    -0.395000000
H    -1.530000000     1.733000000    -0.518000000
C    -1.096000000    -0.062000000     0.587000000
H    -1.952000000    -0.018000000     1.156000000
C    -0.125000000    -1.017000000     0.871000000
H    -0.372000000    -1.736000000     1.648000000
C     1.130000000    -0.993000000     0.210000000
H     1.923000000    -1.694000000     0.458000000
C     1.390000000    -0.083000000    -0.810000000
C     2.760000000     0.025000000    -1.399000000
O     3.570000000    -0.824000000    -1.072000000
O     3.114000000     0.833000000    -2.239000000
