14
-80.13695
C     0.494000000     0.999000000    -0.978000000
H     0.621000000     1.928000000    -1.529000000
C    -0.818000000     0.888000000    -0.527000000
H    -1.529000000     1.648000000    -0.843000000
C    -1.183000000    -0.201000000     0.278000000
H    -2.191000000    -0.502000000     0.375000000
C    -0.208000000    -1.091000000     0.690000000
H    -0.467000000    -1.998000000     1.230000000
C     1.081000000    -1.008000000     0.168000000
H     1.856000000    -1.727000000     0.424000000
C     1.427000000     0.032000000    -0.665000000
C     2.904000000     0.320000000    -0.955000000
O     3.772000000    -0.500000000    -0.807000000
O     3.176000000     1.367000000    -1.446000000
