14
-90.42762
C     0.853000000     1.053000000    -0.498000000
H     1.442000000     1.917000000    -0.794000000
C    -0.416000000     1.238000000     0.003000000
H    -0.795000000     2.256000000    -0.030000000
C    -1.151000000     0.142000000     0.384000000
H    -2.173000000     0.361000000     0.710000000
C    -0.653000000    -1.138000000     0.313000000
H    -1.161000000    -2.012000000     0.712000000
C     0.669000000    -1.322000000    -0.132000000
H     1.106000000    -2.294000000    -0.344000000
C     1.462000000    -0.225000000    -0.515000000
C     2.966000000    -0.312000000    -0.904000000
O     3.452000000    -1.401000000    -1.107000000
O     3.688000000     0.698000000    -0.955000000
