14
-78.50824
C     0.972000000     0.729000000    -0.774000000
H     1.637000000     1.355000000    -1.364000000
C    -0.200000000     1.265000000    -0.237000000
H    -0.593000000     2.222000000    -0.569000000
C    -1.034000000     0.498000000     0.527000000
H    -2.026000000     0.946000000     0.732000000
C    -0.601000000    -0.780000000     0.845000000
H    -1.198000000    -1.479000000     1.425000000
C     0.577000000    -1.306000000     0.282000000
H     0.815000000    -2.334000000     0.545000000
C     1.397000000    -0.562000000    -0.545000000
C     2.614000000    -1.175000000    -1.255000000
O     3.231000000    -2.096000000    -0.743000000
O     3.223000000    -0.300000000    -1.875000000
