14
-87.76190
C     1.176000000     0.869000000    -0.136000000
H     1.993000000     1.566000000    -0.304000000
C    -0.147000000     1.290000000     0.025000000
H    -0.307000000     2.365000000     0.024000000
C    -1.165000000     0.391000000     0.220000000
H    -2.167000000     0.712000000     0.468000000
C    -0.854000000    -0.968000000     0.383000000
H    -1.566000000    -1.742000000     0.658000000
C     0.462000000    -1.374000000     0.194000000
H     0.792000000    -2.410000000     0.204000000
C     1.480000000    -0.452000000    -0.098000000
C     2.883000000    -0.881000000    -0.468000000
O     3.253000000    -2.018000000    -0.298000000
O     3.645000000    -0.089000000    -0.958000000
