14
-90.03861
C     1.430000000    -0.310000000    -0.129000000
H     2.496000000    -0.468000000    -0.269000000
C     0.858000000     0.883000000     0.274000000
H     1.452000000     1.723000000     0.626000000
C    -0.518000000     1.059000000     0.272000000
H    -1.014000000     2.041000000     0.513000000
C    -1.342000000    -0.008000000    -0.002000000
H    -2.422000000     0.114000000     0.022000000
C    -0.778000000    -1.273000000    -0.263000000
H    -1.471000000    -2.103000000    -0.371000000
C     0.625000000    -1.434000000    -0.342000000
C     1.253000000    -2.719000000    -0.781000000
O     0.702000000    -3.822000000    -0.672000000
O     2.383000000    -2.680000000    -1.204000000
