14
-86.51576
C    -0.231000000    -0.624000000     1.319000000
H    -0.411000000    -1.237000000     2.198000000
C     0.537000000    -1.218000000     0.294000000
H     0.968000000    -2.216000000     0.324000000
C     0.658000000    -0.534000000    -0.886000000
H     1.127000000    -0.970000000    -1.743000000
C     0.216000000     0.791000000    -0.961000000
H     0.427000000     1.314000000    -1.891000000
C    -0.508000000     1.378000000     0.098000000
H    -0.892000000     2.381000000    -0.067000000
C    -0.795000000     0.647000000     1.206000000
C    -1.749000000     1.154000000     2.238000000
O    -1.937000000     2.335000000     2.354000000
O    -2.307000000     0.407000000     3.030000000
