14
-75.89869
C     1.087000000     0.789000000     0.544000000
H     1.855000000     1.461000000     0.917000000
C    -0.013000000     1.376000000    -0.058000000
H    -0.022000000     2.457000000    -0.172000000
C    -0.971000000     0.571000000    -0.518000000
H    -1.932000000     0.994000000    -0.853000000
C    -0.800000000    -0.803000000    -0.481000000
H    -1.639000000    -1.442000000    -0.746000000
C     0.319000000    -1.429000000    -0.013000000
H     0.389000000    -2.495000000     0.185000000
C     1.320000000    -0.629000000     0.609000000
C     2.472000000    -1.223000000     1.301000000
O     2.626000000    -2.389000000     1.184000000
O     3.115000000    -0.637000000     2.150000000
