14
-86.24700
C    -0.394000000    -1.375000000    -0.129000000
H    -0.778000000    -2.385000000    -0.248000000
C    -1.092000000    -0.367000000     0.461000000
H    -2.104000000    -0.540000000     0.818000000
C    -0.533000000     0.908000000     0.622000000
H    -1.156000000     1.755000000     0.949000000
C     0.700000000     1.124000000     0.096000000
H     1.076000000     2.144000000     0.073000000
C     1.362000000     0.156000000    -0.548000000
H     2.311000000     0.537000000    -0.916000000
C     0.899000000    -1.151000000    -0.632000000
C     1.551000000    -2.328000000    -1.407000000
O     2.612000000    -2.148000000    -1.939000000
O     0.878000000    -3.356000000    -1.490000000
