14
-92.39218
C    -0.641000000    -0.977000000    -0.874000000
H    -1.237000000    -1.715000000    -1.405000000
C    -1.279000000    -0.267000000     0.169000000
H    -2.346000000    -0.371000000     0.349000000
C    -0.540000000     0.681000000     0.866000000
H    -1.117000000     1.323000000     1.533000000
C     0.807000000     0.935000000     0.572000000
H     1.309000000     1.709000000     1.146000000
C     1.466000000     0.164000000    -0.420000000
H     2.526000000     0.270000000    -0.634000000
C     0.716000000    -0.778000000    -1.153000000
C     1.336000000    -1.677000000    -2.188000000
O     2.287000000    -1.237000000    -2.765000000
O     0.835000000    -2.777000000    -2.439000000
