14
-78.01279
C    -0.544000000    -1.105000000    -0.853000000
H    -1.030000000    -1.868000000    -1.456000000
C    -1.239000000    -0.373000000     0.147000000
H    -2.282000000    -0.549000000     0.397000000
C    -0.644000000     0.642000000     0.898000000
H    -1.287000000     1.281000000     1.588000000
C     0.672000000     1.025000000     0.573000000
H     1.219000000     1.856000000     1.011000000
C     1.377000000     0.336000000    -0.455000000
H     2.423000000     0.479000000    -0.713000000
C     0.798000000    -0.747000000    -1.109000000
C     1.645000000    -1.610000000    -2.031000000
O     2.825000000    -1.656000000    -1.918000000
O     1.230000000    -2.429000000    -2.873000000
