14
-89.19251
C     0.034000000    -0.605000000    -1.362000000
H     0.053000000    -1.130000000    -2.313000000
C    -1.150000000    -0.151000000    -0.824000000
H    -2.125000000    -0.325000000    -1.274000000
C    -1.067000000     0.448000000     0.424000000
H    -1.965000000     0.834000000     0.912000000
C     0.173000000     0.686000000     1.060000000
H     0.216000000     1.077000000     2.073000000
C     1.382000000     0.258000000     0.492000000
H     2.334000000     0.488000000     0.964000000
C     1.258000000    -0.495000000    -0.682000000
C     2.543000000    -1.151000000    -1.207000000
O     3.569000000    -1.173000000    -0.531000000
O     2.515000000    -1.804000000    -2.223000000
