14
-90.48771
C     0.645000000    -0.600000000    -1.176000000
H     1.055000000    -1.074000000    -2.064000000
C    -0.107000000     0.512000000    -1.196000000
H    -0.088000000     0.982000000    -2.176000000
C    -0.663000000     1.088000000    -0.035000000
H    -1.292000000     1.940000000    -0.096000000
C    -0.513000000     0.434000000     1.177000000
H    -0.859000000     0.894000000     2.098000000
C     0.191000000    -0.821000000     1.229000000
H     0.250000000    -1.361000000     2.170000000
C     0.751000000    -1.318000000     0.041000000
C     1.509000000    -2.646000000     0.121000000
O     1.506000000    -3.298000000     1.177000000
O     2.297000000    -2.965000000    -0.801000000
