14
-84.49750
C    -0.018000000    -0.241000000    -1.447000000
H    -0.146000000    -0.311000000    -2.524000000
C    -0.083000000     0.981000000    -0.822000000
H    -0.241000000     1.910000000    -1.364000000
C    -0.143000000     1.011000000     0.586000000
H    -0.145000000     1.901000000     1.178000000
C    -0.104000000    -0.117000000     1.317000000
H    -0.167000000    -0.026000000     2.398000000
C    -0.024000000    -1.352000000     0.665000000
H    -0.085000000    -2.225000000     1.310000000
C     0.164000000    -1.399000000    -0.731000000
C     0.439000000    -2.679000000    -1.380000000
O     1.004000000    -3.532000000    -0.757000000
O     0.224000000    -2.768000000    -2.586000000
