14
-80.41871
C     0.439000000    -0.316000000    -1.383000000
H     0.991000000    -0.438000000    -2.312000000
C     0.537000000     0.924000000    -0.745000000
H     0.973000000     1.752000000    -1.297000000
C     0.136000000     1.071000000     0.534000000
H     0.052000000     2.075000000     0.977000000
C    -0.476000000     0.033000000     1.213000000
H    -0.774000000     0.247000000     2.236000000
C    -0.487000000    -1.259000000     0.702000000
H    -0.965000000    -2.075000000     1.238000000
C    -0.201000000    -1.374000000    -0.687000000
C    -0.447000000    -2.655000000    -1.494000000
O    -0.825000000    -3.704000000    -0.885000000
O    -0.317000000    -2.733000000    -2.664000000
