14
-88.86196
C     1.022000000    -0.529000000    -0.813000000
H     1.681000000    -0.865000000    -1.610000000
C     0.883000000     0.855000000    -0.587000000
H     1.502000000     1.633000000    -1.026000000
C    -0.111000000     1.161000000     0.277000000
H    -0.279000000     2.197000000     0.523000000
C    -0.963000000     0.220000000     0.877000000
H    -1.685000000     0.548000000     1.621000000
C    -0.778000000    -1.166000000     0.596000000
H    -1.469000000    -1.914000000     0.976000000
C     0.231000000    -1.516000000    -0.269000000
C     0.434000000    -2.954000000    -0.664000000
O    -0.283000000    -3.852000000    -0.231000000
O     1.466000000    -3.280000000    -1.336000000
