14
-75.79668
C     1.035000000     0.107000000    -1.053000000
H     1.828000000     0.376000000    -1.747000000
C     0.713000000     1.043000000    -0.073000000
H     1.256000000     1.983000000    -0.017000000
C    -0.251000000     0.796000000     0.841000000
H    -0.483000000     1.597000000     1.590000000
C    -0.891000000    -0.363000000     0.898000000
H    -1.660000000    -0.472000000     1.659000000
C    -0.522000000    -1.419000000     0.000000000
H    -1.005000000    -2.392000000     0.059000000
C     0.393000000    -1.141000000    -1.047000000
C     0.676000000    -2.141000000    -2.057000000
O     0.158000000    -3.202000000    -1.974000000
O     1.573000000    -1.993000000    -2.843000000
