14
-88.80574
C     1.232000000     0.280000000    -0.802000000
H     2.203000000     0.479000000    -1.249000000
C     0.911000000     0.868000000     0.411000000
H     1.638000000     1.452000000     0.969000000
C    -0.286000000     0.643000000     1.012000000
H    -0.404000000     1.019000000     2.034000000
C    -1.096000000    -0.376000000     0.507000000
H    -2.025000000    -0.673000000     0.988000000
C    -0.801000000    -1.025000000    -0.696000000
H    -1.535000000    -1.710000000    -1.112000000
C     0.367000000    -0.656000000    -1.335000000
C     0.752000000    -1.496000000    -2.523000000
O     0.088000000    -2.501000000    -2.719000000
O     1.746000000    -1.179000000    -3.149000000
