14
-90.21163
C     1.236000000    -0.665000000    -0.366000000
H     2.093000000    -1.314000000    -0.527000000
C     0.602000000    -0.791000000     0.883000000
H     1.075000000    -1.332000000     1.698000000
C    -0.589000000    -0.055000000     1.094000000
H    -1.213000000    -0.112000000     2.054000000
C    -1.076000000     0.690000000     0.003000000
H    -2.032000000     1.201000000     0.086000000
C    -0.488000000     0.679000000    -1.227000000
H    -0.858000000     1.340000000    -2.006000000
C     0.727000000     0.046000000    -1.394000000
C     1.514000000     0.140000000    -2.677000000
O     1.129000000     0.990000000    -3.492000000
O     2.450000000    -0.627000000    -2.903000000
