14
-85.51028
C     0.490000000    -1.363000000    -0.421000000
H     0.856000000    -2.373000000    -0.583000000
C     0.435000000    -0.907000000     0.893000000
H     0.675000000    -1.496000000     1.774000000
C     0.021000000     0.407000000     1.176000000
H     0.173000000     0.841000000     2.178000000
C    -0.407000000     1.204000000     0.067000000
H    -0.729000000     2.189000000     0.395000000
C    -0.398000000     0.803000000    -1.220000000
H    -0.860000000     1.416000000    -1.989000000
C     0.071000000    -0.512000000    -1.470000000
C     0.069000000    -1.040000000    -2.933000000
O     0.005000000    -0.311000000    -3.878000000
O     0.203000000    -2.252000000    -3.152000000
