14
-90.41550
C     0.724000000    -1.308000000    -0.355000000
H     1.310000000    -2.203000000    -0.548000000
C     0.621000000    -0.770000000     0.927000000
H     1.003000000    -1.317000000     1.785000000
C    -0.128000000     0.386000000     1.135000000
H    -0.300000000     0.779000000     2.173000000
C    -0.703000000     1.145000000     0.078000000
H    -1.275000000     2.049000000     0.271000000
C    -0.529000000     0.622000000    -1.193000000
H    -0.831000000     1.141000000    -2.098000000
C     0.115000000    -0.616000000    -1.398000000
C     0.336000000    -1.049000000    -2.844000000
O     0.268000000    -0.191000000    -3.699000000
O     0.702000000    -2.166000000    -3.145000000
