14
-89.86293
C    -1.302000000    -0.579000000    -0.487000000
H    -2.171000000    -1.074000000    -0.913000000
C    -0.124000000    -0.411000000    -1.306000000
H    -0.212000000    -0.771000000    -2.328000000
C     0.981000000     0.206000000    -0.767000000
H     1.769000000     0.495000000    -1.337000000
C     0.981000000     0.556000000     0.584000000
H     1.848000000     1.060000000     1.005000000
C    -0.105000000     0.367000000     1.388000000
H    -0.039000000     0.726000000     2.412000000
C    -1.275000000    -0.277000000     0.917000000
C    -2.455000000    -0.473000000     1.861000000
O    -2.377000000     0.021000000     2.977000000
O    -3.403000000    -1.160000000     1.515000000
