14
-88.11016
C     0.180000000    -1.396000000    -0.451000000
H     0.329000000    -2.433000000    -0.738000000
C     0.584000000    -0.941000000     0.766000000
H     0.835000000    -1.682000000     1.521000000
C     0.455000000     0.445000000     1.036000000
H     0.896000000     0.842000000     1.854000000
C    -0.148000000     1.344000000     0.111000000
H    -0.268000000     2.402000000     0.329000000
C    -0.627000000     0.831000000    -1.112000000
H    -1.158000000     1.522000000    -1.762000000
C    -0.510000000    -0.535000000    -1.365000000
C    -0.946000000    -1.123000000    -2.687000000
O    -1.508000000    -0.373000000    -3.457000000
O    -0.856000000    -2.325000000    -2.927000000
