14
-81.26143
C     0.779000000    -0.949000000    -0.843000000
H     1.389000000    -1.730000000    -1.290000000
C     1.221000000    -0.290000000     0.301000000
H     2.231000000    -0.609000000     0.546000000
C     0.477000000     0.613000000     0.989000000
H     0.896000000     1.010000000     1.908000000
C    -0.847000000     0.835000000     0.558000000
H    -1.512000000     1.554000000     1.031000000
C    -1.333000000     0.179000000    -0.540000000
H    -2.375000000     0.288000000    -0.832000000
C    -0.521000000    -0.747000000    -1.308000000
C    -1.023000000    -1.540000000    -2.425000000
O    -2.197000000    -1.492000000    -2.763000000
O    -0.329000000    -2.221000000    -3.146000000
