14
-85.62101
C     0.767000000     0.554000000    -1.059000000
H     1.393000000     1.026000000    -1.812000000
C     0.680000000     1.046000000     0.214000000
H     1.227000000     1.968000000     0.394000000
C    -0.110000000     0.383000000     1.191000000
H    -0.147000000     0.882000000     2.141000000
C    -0.865000000    -0.737000000     0.812000000
H    -1.479000000    -1.319000000     1.494000000
C    -0.788000000    -1.154000000    -0.491000000
H    -1.193000000    -2.096000000    -0.852000000
C     0.030000000    -0.530000000    -1.448000000
C     0.217000000    -0.970000000    -2.865000000
O    -0.721000000    -1.527000000    -3.379000000
O     1.264000000    -0.854000000    -3.474000000
