14
-87.61794
C     1.211000000    -0.266000000    -0.789000000
H     2.190000000    -0.443000000    -1.228000000
C     1.147000000     0.388000000     0.454000000
H     2.042000000     0.824000000     0.892000000
C    -0.034000000     0.569000000     1.096000000
H     0.004000000     0.977000000     2.071000000
C    -1.156000000     0.127000000     0.439000000
H    -2.148000000     0.239000000     0.870000000
C    -1.086000000    -0.486000000    -0.779000000
H    -2.005000000    -0.693000000    -1.322000000
C     0.087000000    -0.683000000    -1.444000000
C     0.166000000    -1.484000000    -2.708000000
O    -0.838000000    -2.091000000    -3.026000000
O     1.218000000    -1.522000000    -3.305000000
