14
-90.36311
C    -1.225000000    -0.041000000    -0.822000000
H    -2.035000000    -0.200000000    -1.530000000
C     0.064000000    -0.046000000    -1.286000000
H     0.167000000    -0.059000000    -2.368000000
C     1.161000000     0.085000000    -0.437000000
H     2.186000000     0.124000000    -0.824000000
C     0.956000000     0.127000000     0.942000000
H     1.787000000     0.081000000     1.641000000
C    -0.390000000     0.073000000     1.418000000
H    -0.529000000    -0.011000000     2.493000000
C    -1.507000000    -0.068000000     0.550000000
C    -2.892000000    -0.046000000     1.057000000
O    -3.081000000     0.507000000     2.150000000
O    -3.807000000    -0.305000000     0.283000000
