14
-89.84229
C     1.318000000    -0.815000000     0.199000000
H     2.181000000    -1.437000000     0.421000000
C     0.514000000    -0.296000000     1.256000000
H     0.759000000    -0.521000000     2.291000000
C    -0.608000000     0.470000000     0.921000000
H    -1.324000000     0.804000000     1.725000000
C    -0.933000000     0.756000000    -0.375000000
H    -1.824000000     1.349000000    -0.564000000
C    -0.236000000     0.258000000    -1.434000000
H    -0.594000000     0.432000000    -2.445000000
C     0.916000000    -0.550000000    -1.115000000
C     1.776000000    -1.135000000    -2.275000000
O     1.427000000    -0.959000000    -3.443000000
O     2.768000000    -1.818000000    -2.064000000
