14
-83.76199
C     1.431000000     0.379000000    -0.094000000
H     2.479000000     0.656000000    -0.015000000
C     0.651000000     0.336000000     1.056000000
H     1.042000000     0.763000000     1.976000000
C    -0.721000000     0.124000000     0.973000000
H    -1.290000000     0.218000000     1.905000000
C    -1.291000000    -0.339000000    -0.187000000
H    -2.341000000    -0.583000000    -0.333000000
C    -0.409000000    -0.533000000    -1.353000000
H    -0.803000000    -0.854000000    -2.314000000
C     0.875000000    -0.039000000    -1.317000000
C     1.682000000    -0.221000000    -2.506000000
O     1.240000000    -0.812000000    -3.542000000
O     2.902000000    -0.020000000    -2.473000000
