14
-77.96262
C    -1.073000000    -0.496000000    -0.898000000
H    -1.746000000    -0.888000000    -1.657000000
C     0.155000000    -0.036000000    -1.332000000
H     0.426000000    -0.111000000    -2.383000000
C     1.081000000     0.478000000    -0.353000000
H     2.052000000     0.721000000    -0.764000000
C     0.685000000     0.502000000     0.931000000
H     1.396000000     0.945000000     1.623000000
C    -0.464000000    -0.073000000     1.291000000
H    -0.727000000    -0.054000000     2.346000000
C    -1.390000000    -0.555000000     0.421000000
C    -2.756000000    -1.175000000     0.905000000
O    -3.240000000    -0.936000000     1.962000000
O    -3.357000000    -1.938000000     0.163000000
