14
-74.61129
C     1.115000000     0.886000000    -0.483000000
H     1.849000000     1.633000000    -0.777000000
C     0.253000000     1.199000000     0.545000000
H     0.205000000     2.131000000     1.103000000
C    -0.785000000     0.251000000     0.904000000
H    -1.506000000     0.500000000     1.604000000
C    -0.823000000    -0.988000000     0.277000000
H    -1.705000000    -1.608000000     0.412000000
C     0.134000000    -1.352000000    -0.640000000
H     0.071000000    -2.351000000    -1.064000000
C     1.096000000    -0.422000000    -1.056000000
C     2.056000000    -0.731000000    -2.145000000
O     1.948000000    -1.726000000    -2.810000000
O     2.671000000     0.165000000    -2.798000000
