14
-87.58145
C     1.407000000     0.238000000     0.053000000
H     2.434000000     0.539000000     0.242000000
C     0.511000000     0.416000000     1.073000000
H     0.872000000     0.882000000     1.987000000
C    -0.823000000     0.156000000     0.888000000
H    -1.627000000     0.329000000     1.698000000
C    -1.347000000    -0.361000000    -0.317000000
H    -2.424000000    -0.504000000    -0.356000000
C    -0.381000000    -0.683000000    -1.302000000
H    -0.737000000    -1.159000000    -2.213000000
C     0.997000000    -0.359000000    -1.164000000
C     2.048000000    -0.704000000    -2.197000000
O     1.742000000    -1.482000000    -3.074000000
O     3.118000000    -0.164000000    -2.153000000
