14
-77.30378
C    -1.196000000    -0.404000000    -0.766000000
H    -2.090000000    -0.523000000    -1.372000000
C     0.075000000    -0.121000000    -1.279000000
H     0.359000000    -0.105000000    -2.328000000
C     1.134000000     0.099000000    -0.431000000
H     2.181000000     0.277000000    -0.612000000
C     0.937000000     0.211000000     0.978000000
H     1.687000000     0.530000000     1.697000000
C    -0.374000000     0.114000000     1.414000000
H    -0.621000000     0.271000000     2.461000000
C    -1.416000000    -0.322000000     0.598000000
C    -2.747000000    -0.405000000     1.154000000
O    -2.993000000     0.097000000     2.270000000
O    -3.577000000    -1.066000000     0.646000000
