14
-89.19956
C     1.429000000     0.049000000     0.280000000
H     2.487000000     0.192000000     0.488000000
C     0.479000000     0.294000000     1.208000000
H     0.912000000     0.554000000     2.171000000
C    -0.876000000     0.180000000     0.867000000
H    -1.703000000     0.463000000     1.527000000
C    -1.233000000    -0.278000000    -0.415000000
H    -2.284000000    -0.419000000    -0.652000000
C    -0.298000000    -0.434000000    -1.420000000
H    -0.566000000    -0.745000000    -2.427000000
C     1.098000000    -0.184000000    -1.090000000
C     2.131000000    -0.192000000    -2.208000000
O     1.782000000    -0.129000000    -3.383000000
O     3.309000000    -0.112000000    -1.868000000
