14
-84.03105
C     1.316000000     0.567000000    -0.456000000
H     2.309000000     0.984000000    -0.600000000
C     0.808000000     0.454000000     0.825000000
H     1.355000000     0.875000000     1.665000000
C    -0.385000000    -0.071000000     1.118000000
H    -0.597000000    -0.123000000     2.209000000
C    -1.217000000    -0.556000000     0.081000000
H    -2.185000000    -0.936000000     0.399000000
C    -0.723000000    -0.458000000    -1.181000000
H    -1.360000000    -0.874000000    -1.957000000
C     0.516000000     0.108000000    -1.517000000
C     1.069000000     0.091000000    -2.866000000
O     0.499000000    -0.551000000    -3.738000000
O     2.175000000     0.569000000    -3.124000000
