14
-86.77073
C     1.309000000     0.637000000    -0.352000000
H     2.263000000     1.121000000    -0.545000000
C     0.886000000     0.404000000     0.947000000
H     1.448000000     0.648000000     1.845000000
C    -0.400000000    -0.095000000     1.147000000
H    -0.667000000    -0.266000000     2.121000000
C    -1.237000000    -0.286000000     0.105000000
H    -2.231000000    -0.709000000     0.229000000
C    -0.779000000    -0.185000000    -1.165000000
H    -1.341000000    -0.628000000    -1.983000000
C     0.533000000     0.232000000    -1.440000000
C     0.950000000     0.409000000    -2.919000000
O     0.243000000    -0.108000000    -3.819000000
O     2.010000000     0.929000000    -3.211000000
