14
-75.91739
C     0.389000000     0.939000000    -1.099000000
H     0.743000000     1.608000000    -1.878000000
C     0.952000000     0.934000000     0.220000000
H     1.656000000     1.699000000     0.538000000
C     0.440000000     0.009000000     1.119000000
H     0.884000000    -0.094000000     2.117000000
C    -0.599000000    -0.876000000     0.855000000
H    -0.904000000    -1.584000000     1.621000000
C    -1.128000000    -0.875000000    -0.451000000
H    -1.774000000    -1.692000000    -0.760000000
C    -0.619000000     0.015000000    -1.433000000
C    -1.255000000     0.158000000    -2.742000000
O    -1.770000000    -0.801000000    -3.265000000
O    -1.047000000     1.069000000    -3.474000000
