14
-88.09484
C    -0.607000000     0.513000000    -1.253000000
H    -0.977000000     0.953000000    -2.176000000
C     0.015000000     1.249000000    -0.269000000
H     0.127000000     2.313000000    -0.464000000
C     0.603000000     0.664000000     0.826000000
H     1.271000000     1.249000000     1.454000000
C     0.322000000    -0.604000000     1.136000000
H     0.681000000    -1.126000000     2.020000000
C    -0.405000000    -1.411000000     0.220000000
H    -0.554000000    -2.449000000     0.507000000
C    -0.842000000    -0.850000000    -0.969000000
C    -1.402000000    -1.781000000    -2.016000000
O    -1.513000000    -2.989000000    -1.858000000
O    -1.592000000    -1.312000000    -3.161000000
