14
-86.52643
C    -0.458000000     0.451000000    -1.342000000
H    -0.779000000     0.867000000    -2.294000000
C     0.141000000     1.266000000    -0.406000000
H     0.347000000     2.306000000    -0.646000000
C     0.480000000     0.715000000     0.861000000
H     0.886000000     1.450000000     1.632000000
C     0.397000000    -0.639000000     1.089000000
H     0.794000000    -1.134000000     1.971000000
C    -0.173000000    -1.457000000     0.091000000
H    -0.240000000    -2.520000000     0.308000000
C    -0.728000000    -0.909000000    -1.062000000
C    -1.466000000    -1.832000000    -1.970000000
O    -1.661000000    -3.041000000    -1.794000000
O    -2.004000000    -1.290000000    -2.890000000
