14
-85.62269
C    -1.237000000    -0.733000000    -0.101000000
H    -2.242000000    -1.139000000    -0.017000000
C    -1.050000000     0.514000000     0.431000000
H    -1.930000000     1.116000000     0.645000000
C     0.149000000     1.113000000     0.468000000
H     0.283000000     2.102000000     0.767000000
C     1.206000000     0.409000000    -0.062000000
H     2.152000000     0.943000000    -0.022000000
C     1.038000000    -0.836000000    -0.640000000
H     1.932000000    -1.352000000    -0.980000000
C    -0.176000000    -1.430000000    -0.681000000
C    -0.408000000    -2.852000000    -1.156000000
O     0.588000000    -3.475000000    -1.529000000
O    -1.530000000    -3.316000000    -1.270000000
