14
-86.09236
C    -1.358000000     0.126000000    -0.446000000
H    -2.364000000     0.424000000    -0.730000000
C    -0.943000000     0.432000000     0.848000000
H    -1.684000000     0.949000000     1.451000000
C     0.432000000     0.187000000     1.191000000
H     0.844000000     0.371000000     2.135000000
C     1.241000000    -0.400000000     0.211000000
H     2.267000000    -0.599000000     0.512000000
C     0.702000000    -0.800000000    -1.035000000
H     1.341000000    -1.275000000    -1.775000000
C    -0.539000000    -0.452000000    -1.435000000
C    -1.069000000    -0.782000000    -2.849000000
O    -0.244000000    -0.848000000    -3.758000000
O    -2.251000000    -0.488000000    -3.058000000
