14
-89.77344
C    -1.125000000     0.530000000    -0.874000000
H    -1.929000000     1.056000000    -1.383000000
C    -0.945000000     0.801000000     0.496000000
H    -1.668000000     1.495000000     0.916000000
C     0.167000000     0.335000000     1.197000000
H     0.375000000     0.432000000     2.259000000
C     1.039000000    -0.521000000     0.491000000
H     1.872000000    -0.994000000     1.005000000
C     0.990000000    -0.700000000    -0.876000000
H     1.807000000    -1.199000000    -1.391000000
C    -0.129000000    -0.231000000    -1.551000000
C    -0.359000000    -0.648000000    -2.964000000
O     0.407000000    -1.419000000    -3.537000000
O    -1.395000000    -0.244000000    -3.472000000
